ver_1.2
     RDKit          3D

 17 18  0  0  0  0  0  0  0  0999 V2000
   -4.1027   -1.7885    0.9772 C   0  0  0  0  0  0  0  0  0  0  0  0
   -3.1860   -0.7230    0.8286 O   0  0  0  0  0  0  0  0  0  0  0  0
   -1.8454   -0.9126    0.5236 C   0  0  0  0  0  0  0  0  0  0  0  0
   -1.4501   -2.2288    0.3703 C   0  0  0  0  0  0  0  0  0  0  0  0
   -0.1576   -2.5825    0.0676 C   0  0  0  0  0  0  0  0  0  0  0  0
    0.7880   -1.6041   -0.0917 C   0  0  0  0  0  0  0  0  0  0  0  0
    2.1255   -1.5322   -0.3829 C   0  0  0  0  0  0  0  0  0  0  0  0
    2.5326   -0.1938   -0.4054 C   0  0  0  0  0  0  0  0  0  0  0  0
    3.8956    0.3479   -0.6786 C   0  0  0  0  0  0  0  0  0  0  0  0
    4.6717    0.4735    0.5515 N   0  0  0  0  0  0  0  0  0  0  0  0
    1.4262    0.4999   -0.1266 N   0  0  0  0  0  0  0  0  0  0  0  0
    0.3808   -0.3006    0.0636 C   0  0  0  0  0  0  0  0  0  0  0  0
   -0.8949    0.0996    0.3649 C   0  0  0  0  0  0  0  0  0  0  0  0
   -1.4923    1.3548    0.5597 N   0  0  0  0  0  0  0  0  0  0  0  0
   -0.9564    2.6255    0.5053 C   0  0  0  0  0  0  0  0  0  0  0  0
   -1.9828    3.6783    0.7845 C   0  0  0  0  0  0  0  0  0  0  0  0
    0.2477    2.7867    0.2480 O   0  0  0  0  0  0  0  0  0  0  0  0
  1  2  1  0
  2  3  1  0
  3  4  2  0
  4  5  1  0
  5  6  2  0
  6  7  1  0
  7  8  2  0
  8  9  1  0
  9 10  1  0
  8 11  1  0
 11 12  1  0
 12 13  2  0
 13 14  1  0
 14 15  1  0
 15 16  1  0
 15 17  2  0
 13  3  1  0
 12  6  1  0
M  END
>  <ref_url>  (1) 
https://github.com/mwinokan/BulkDock

>  <submitter_name>  (1) 
Max Winokan

>  <submitter_email>  (1) 
max.winokan@diamond.ac.uk

>  <submitter_institution>  (1) 
DLS

>  <generation_date>  (1) 
2024-12-03

>  <method>  (1) 
Fragmenstein_CavB

>  <SLURM_JOB_ID>  (1) 
SLURM_JOB_ID

>  <SLURM_JOB_NAME>  (1) 
SLURM_JOB_NAME

>  <csv_name>  (1) 
csv_name

>  <scratch_subdir>  (1) 
scratch_subdir

>  <fragmenstein_runtime>  (1) 
fragmenstein_runtime

>  <fragmenstein_outcome>  (1) 
fragmenstein_outcome

>  <fragmenstein_mode>  (1) 
fragmenstein_mode

>  <fragmenstein_error>  (1) 
fragmenstein_error

>  <exports>  (1) 
exports

>  <HIPPO Pose ID>  (1) 
HIPPO Pose ID

>  <HIPPO Compound ID>  (1) 
HIPPO Compound ID

>  <smiles>  (1) 
smiles

>  <ref_pdb>  (1) 
protein reference

>  <ref_mols>  (1) 
fragment inspirations

>  <original ID>  (1) 
original ID

>  <compound inchikey>  (1) 
compound inchikey

$$$$
55394
     RDKit          3D

 17 18  0  0  0  0  0  0  0  0999 V2000
  -23.1701  -55.3238   -0.4674 C   0  0  0  0  0  0  0  0  0  0  0  0
  -23.4631  -56.6029    0.0893 O   0  0  0  0  0  0  0  0  0  0  0  0
  -24.2822  -57.3733   -0.6970 C   0  0  0  0  0  0  0  0  0  0  0  0
  -25.2083  -56.8006   -1.5620 C   0  0  0  0  0  0  0  0  0  0  0  0
  -25.9050  -57.5917   -2.4557 C   0  0  0  0  0  0  0  0  0  0  0  0
  -25.7165  -58.9775   -2.4354 C   0  0  0  0  0  0  0  0  0  0  0  0
  -26.2976  -60.0152   -3.1859 C   0  0  0  0  0  0  0  0  0  0  0  0
  -25.6660  -61.1828   -2.8362 C   0  0  0  0  0  0  0  0  0  0  0  0
  -25.7850  -62.5133   -3.4512 C   0  0  0  0  0  0  0  0  0  0  0  0
  -27.1742  -62.7088   -3.7974 N   0  0  0  0  0  0  0  0  0  0  0  0
  -24.8438  -60.9065   -1.7744 N   0  0  0  0  0  0  0  0  0  0  0  0
  -24.8357  -59.5508   -1.5200 C   0  0  0  0  0  0  0  0  0  0  0  0
  -24.1134  -58.7707   -0.6098 C   0  0  0  0  0  0  0  0  0  0  0  0
  -23.1977  -59.2701    0.3145 N   0  0  0  0  0  0  0  0  0  0  0  0
  -22.6788  -60.7200    0.5407 C   0  0  0  0  0  0  0  0  0  0  0  0
  -21.6093  -60.6189    1.6050 C   0  0  0  0  0  0  0  0  0  0  0  0
  -22.9982  -61.7262    0.0373 O   0  0  0  0  0  0  0  0  0  0  0  0
  1  2  1  0
  2  3  1  0
  3  4  2  0
  4  5  1  0
  5  6  2  0
  6  7  1  0
  7  8  2  0
  8  9  1  0
  9 10  1  0
  8 11  1  0
 11 12  1  0
 12 13  2  0
 13 14  1  0
 14 15  1  0
 15 16  1  0
 15 17  2  0
 13  3  1  0
 12  6  1  0
M  END
>  <fragmenstein_runtime>  (1) 
2.294948

>  <csv_name>  (1) 
RdRp_fstein_cavity_b_split1000_batch000.csv

>  <scratch_subdir>  (1) 
/opt/xchem-fragalysis-2/maxwin/BulkDock/SCRATCH/216971/C66289-P96

>  <SLURM_JOB_NAME>  (1) 
BulkDock.place:Flavi_NS5_RdRp:RdRp_fstein_cavity_b_split1000_batch000

>  <tags>  (1) 
['Fragmenstein placed']

>  <energy_score>  (1) 
-35.134158

>  <original SMILES>  (1) 
COc1ccc2cc(CN)[nH]c2c1NC(C)=O

>  <exports>  (1) 
['/opt/xchem-fragalysis-2/maxwin/BulkDock/OUTPUTS/RdRp_fstein_cavity_b_split1000_batch000_216971.sdf']

>  <inchikey>  (1) 
CZPICAMLPOGNFV-UHFFFAOYSA-N

>  <ref_pdb>  (1) 
z0184a

>  <alias>  (1) 
None

>  <fragmenstein_error>  (1) 
None

>  <name>  (1) 
CZPICAMLPOGNFV-UHFFFAOYSA-N

>  <SLURM_JOB_ID>  (1) 
216971

>  <fragmenstein_mode>  (1) 
expansion

>  <HIPPO Compound ID>  (1) 
66289

>  <ref_mols>  (1) 
z0136b,z0184a

>  <distance_score>  (1) 
0.88802

>  <fragmenstein_outcome>  (1) 
acceptable

>  <original ID>  (1) 
CZPICAMLPOGNFV-UHFFFAOYSA-N

>  <HIPPO Pose ID>  (1) 
55394

$$$$
55400
     RDKit          3D

 18 20  0  0  0  0  0  0  0  0999 V2000
  -21.9213  -58.1741    0.9961 C   0  0  0  0  0  0  0  0  0  0  0  0
  -22.5330  -59.5478    0.8022 C   0  0  0  0  0  0  0  0  0  0  0  0
  -21.9319  -60.4690    0.3830 O   0  0  0  0  0  0  0  0  0  0  0  0
  -23.9666  -59.4491    1.2835 N   0  0  0  0  0  0  0  0  0  0  0  0
  -24.9695  -60.4678    1.4569 C   0  0  0  0  0  0  0  0  0  0  0  0
  -26.2893  -60.4959    1.8945 C   0  0  0  0  0  0  0  0  0  0  0  0
  -26.6073  -61.8618    2.0176 C   0  0  0  0  0  0  0  0  0  0  0  0
  -25.5632  -62.6549    1.7702 N   0  0  0  0  0  0  0  0  0  0  0  0
  -24.5686  -61.7916    1.5079 N   0  0  0  0  0  0  0  0  0  0  0  0
  -24.9144  -59.0811    0.1355 C   0  0  0  0  0  0  0  0  0  0  0  0
  -25.3332  -57.7240    0.1824 C   0  0  0  0  0  0  0  0  0  0  0  0
  -26.0505  -57.1190   -0.8425 C   0  0  0  0  0  0  0  0  0  0  0  0
  -26.4066  -57.8558   -1.9657 C   0  0  0  0  0  0  0  0  0  0  0  0
  -25.9906  -59.1923   -2.0854 C   0  0  0  0  0  0  0  0  0  0  0  0
  -26.2538  -60.1986   -3.0474 C   0  0  0  0  0  0  0  0  0  0  0  0
  -25.4891  -61.2898   -2.7233 C   0  0  0  0  0  0  0  0  0  0  0  0
  -24.7963  -60.9917   -1.5795 N   0  0  0  0  0  0  0  0  0  0  0  0
  -25.1754  -59.7544   -1.0951 C   0  0  0  0  0  0  0  0  0  0  0  0
  1  2  1  0
  2  3  2  0
  2  4  1  0
  4  5  1  0
  5  6  2  0
  6  7  1  0
  7  8  2  0
  8  9  1  0
  4 10  1  0
 10 11  2  0
 11 12  1  0
 12 13  2  0
 13 14  1  0
 14 15  1  0
 15 16  2  0
 16 17  1  0
 17 18  1  0
  9  5  1  0
 18 10  1  0
 18 14  2  0
M  END
>  <fragmenstein_runtime>  (2) 
1.222544

>  <csv_name>  (2) 
RdRp_fstein_cavity_b_split1000_batch000.csv

>  <scratch_subdir>  (2) 
/opt/xchem-fragalysis-2/maxwin/BulkDock/SCRATCH/216971/C66292-P90

>  <SLURM_JOB_NAME>  (2) 
BulkDock.place:Flavi_NS5_RdRp:RdRp_fstein_cavity_b_split1000_batch000

>  <tags>  (2) 
['Fragmenstein placed']

>  <energy_score>  (2) 
-202.005138

>  <original SMILES>  (2) 
CC(=O)N(c1ccn[nH]1)c1cccc2cc[nH]c12

>  <exports>  (2) 
['/opt/xchem-fragalysis-2/maxwin/BulkDock/OUTPUTS/RdRp_fstein_cavity_b_split1000_batch000_216971.sdf']

>  <inchikey>  (2) 
XDONIJPEZJLCMB-UHFFFAOYSA-N

>  <ref_pdb>  (2) 
z0136b

>  <alias>  (2) 
None

>  <fragmenstein_error>  (2) 
None

>  <name>  (2) 
XDONIJPEZJLCMB-UHFFFAOYSA-N

>  <SLURM_JOB_ID>  (2) 
216971

>  <fragmenstein_mode>  (2) 
expansion

>  <HIPPO Compound ID>  (2) 
66292

>  <ref_mols>  (2) 
z0136b,z0481b

>  <distance_score>  (2) 
0.933876

>  <fragmenstein_outcome>  (2) 
acceptable

>  <original ID>  (2) 
XDONIJPEZJLCMB-UHFFFAOYSA-N

>  <HIPPO Pose ID>  (2) 
55400

$$$$
55410
     RDKit          3D

 19 21  0  0  0  0  0  0  0  0999 V2000
  -28.1435  -55.0217    1.3181 C   0  0  0  0  0  0  0  0  0  0  0  0
  -27.0978  -54.6245    0.2806 C   0  0  2  0  0  0  0  0  0  0  0  0
  -26.5158  -55.8713   -0.3961 C   0  0  0  0  0  0  0  0  0  0  0  0
  -25.3115  -55.6289   -1.2653 N   0  0  0  0  0  0  0  0  0  0  0  0
  -24.5122  -56.7722   -1.3272 C   0  0  0  0  0  0  0  0  0  0  0  0
  -23.5730  -56.6791   -0.3869 C   0  0  0  0  0  0  0  0  0  0  0  0
  -22.8902  -57.8418    0.2358 C   0  0  0  0  0  0  0  0  0  0  0  0
  -23.5385  -59.2113   -0.0904 C   0  0  0  0  0  0  0  0  0  0  0  0
  -24.8137  -59.1901   -0.9606 C   0  0  2  0  0  0  0  0  0  0  0  0
  -25.0085  -60.4206   -1.6947 N   0  0  0  0  0  0  0  0  0  0  0  0
  -25.9890  -60.7608   -2.8454 C   0  0  0  0  0  0  0  0  0  0  0  0
  -26.8426  -60.1242   -3.3256 O   0  0  0  0  0  0  0  0  0  0  0  0
  -25.6665  -62.1759   -3.3276 C   0  0  0  0  0  0  0  0  0  0  0  0
  -26.9072  -62.7908   -3.7931 N   0  0  0  0  0  0  0  0  0  0  0  0
  -24.9130  -58.0337   -1.9619 C   0  0  0  0  0  0  0  0  0  0  0  0
  -23.5045  -55.4083    0.2101 O   0  0  0  0  0  0  0  0  0  0  0  0
  -24.3613  -54.6427   -0.6785 C   0  0  2  0  0  0  0  0  0  0  0  0
  -25.0638  -53.4459   -0.0185 C   0  0  0  0  0  0  0  0  0  0  0  0
  -26.1118  -53.7764    0.9580 N   0  0  0  0  0  0  0  0  0  0  0  0
  2  1  1  1
  2  3  1  0
  3  4  1  0
  4  5  1  0
  5  6  2  0
  6  7  1  0
  7  8  1  0
  8  9  1  0
  9 10  1  6
 10 11  1  0
 11 12  2  0
 11 13  1  0
 13 14  1  0
  9 15  1  0
  6 16  1  0
 16 17  1  0
 17 18  1  1
 18 19  1  0
 19  2  1  0
 17  4  1  0
 15  5  1  0
M  END
>  <fragmenstein_runtime>  (3) 
2.820431

>  <csv_name>  (3) 
RdRp_fstein_cavity_b_split1000_batch000.csv

>  <scratch_subdir>  (3) 
/opt/xchem-fragalysis-2/maxwin/BulkDock/SCRATCH/216971/C66302-P96

>  <SLURM_JOB_NAME>  (3) 
BulkDock.place:Flavi_NS5_RdRp:RdRp_fstein_cavity_b_split1000_batch000

>  <tags>  (3) 
['Fragmenstein placed']

>  <energy_score>  (3) 
-33.5026

>  <original SMILES>  (3) 
C[C@@H]1CN2C3=C(CC[C@H](NC(=O)CN)C3)O[C@@H]2CN1

>  <exports>  (3) 
['/opt/xchem-fragalysis-2/maxwin/BulkDock/OUTPUTS/RdRp_fstein_cavity_b_split1000_batch000_216971.sdf']

>  <inchikey>  (3) 
JUPWGDGDXRJYAC-VYUIOLGVSA-N

>  <ref_pdb>  (3) 
z0184a

>  <alias>  (3) 
None

>  <fragmenstein_error>  (3) 
None

>  <name>  (3) 
JUPWGDGDXRJYAC-VYUIOLGVSA-N

>  <SLURM_JOB_ID>  (3) 
216971

>  <fragmenstein_mode>  (3) 
expansion

>  <HIPPO Compound ID>  (3) 
66302

>  <ref_mols>  (3) 
z0184a,z0186a

>  <distance_score>  (3) 
0.707147

>  <fragmenstein_outcome>  (3) 
acceptable

>  <original ID>  (3) 
JUPWGDGDXRJYAC-VYUIOLGVSA-N

>  <HIPPO Pose ID>  (3) 
55410

$$$$
55411
     RDKit          3D

 19 21  0  0  0  0  0  0  0  0999 V2000
  -27.6252  -54.2436    1.2173 C   0  0  0  0  0  0  0  0  0  0  0  0
  -26.4493  -53.9780    0.2724 C   0  0  2  0  0  0  0  0  0  0  0  0
  -26.1243  -55.2639   -0.5044 C   0  0  0  0  0  0  0  0  0  0  0  0
  -24.8139  -55.3049   -1.2353 N   0  0  0  0  0  0  0  0  0  0  0  0
  -24.2648  -56.5889   -1.2416 C   0  0  0  0  0  0  0  0  0  0  0  0
  -23.3094  -56.6577   -0.3184 C   0  0  0  0  0  0  0  0  0  0  0  0
  -22.7736  -57.9092    0.2697 C   0  0  0  0  0  0  0  0  0  0  0  0
  -23.5155  -59.1884   -0.1649 C   0  0  0  0  0  0  0  0  0  0  0  0
  -24.8082  -59.0025   -0.9817 C   0  0  2  0  0  0  0  0  0  0  0  0
  -25.0774  -60.1527   -1.8183 N   0  0  0  0  0  0  0  0  0  0  0  0
  -26.1861  -60.3913   -2.8727 C   0  0  0  0  0  0  0  0  0  0  0  0
  -27.0978  -59.7289   -3.1740 O   0  0  0  0  0  0  0  0  0  0  0  0
  -25.8403  -61.6959   -3.5972 C   0  0  0  0  0  0  0  0  0  0  0  0
  -27.0420  -62.2540   -4.2148 N   0  0  0  0  0  0  0  0  0  0  0  0
  -24.8638  -57.7660   -1.8913 C   0  0  0  0  0  0  0  0  0  0  0  0
  -22.9795  -55.4222    0.2512 O   0  0  0  0  0  0  0  0  0  0  0  0
  -23.7312  -54.4997   -0.5878 C   0  0  2  0  0  0  0  0  0  0  0  0
  -24.1916  -53.2458    0.1775 C   0  0  0  0  0  0  0  0  0  0  0  0
  -25.3349  -53.4568    1.0755 N   0  0  0  0  0  0  0  0  0  0  0  0
  2  1  1  1
  2  3  1  0
  3  4  1  0
  4  5  1  0
  5  6  2  0
  6  7  1  0
  7  8  1  0
  8  9  1  0
  9 10  1  6
 10 11  1  0
 11 12  2  0
 11 13  1  0
 13 14  1  0
  9 15  1  0
  6 16  1  0
 16 17  1  0
 17 18  1  1
 18 19  1  0
 19  2  1  0
 17  4  1  0
 15  5  1  0
M  END
>  <fragmenstein_runtime>  (4) 
3.347102

>  <csv_name>  (4) 
RdRp_fstein_cavity_b_split1000_batch000.csv

>  <scratch_subdir>  (4) 
/opt/xchem-fragalysis-2/maxwin/BulkDock/SCRATCH/216971/C66302-P97

>  <SLURM_JOB_NAME>  (4) 
BulkDock.place:Flavi_NS5_RdRp:RdRp_fstein_cavity_b_split1000_batch000

>  <tags>  (4) 
['Fragmenstein placed']

>  <energy_score>  (4) 
-37.936488

>  <original SMILES>  (4) 
C[C@@H]1CN2C3=C(CC[C@H](NC(=O)CN)C3)O[C@@H]2CN1

>  <exports>  (4) 
['/opt/xchem-fragalysis-2/maxwin/BulkDock/OUTPUTS/RdRp_fstein_cavity_b_split1000_batch000_216971.sdf']

>  <inchikey>  (4) 
JUPWGDGDXRJYAC-VYUIOLGVSA-N

>  <ref_pdb>  (4) 
z0186a

>  <alias>  (4) 
None

>  <fragmenstein_error>  (4) 
None

>  <name>  (4) 
JUPWGDGDXRJYAC-VYUIOLGVSA-N

>  <SLURM_JOB_ID>  (4) 
216971

>  <fragmenstein_mode>  (4) 
expansion

>  <HIPPO Compound ID>  (4) 
66302

>  <ref_mols>  (4) 
z0184a,z0186a

>  <distance_score>  (4) 
0.870955

>  <fragmenstein_outcome>  (4) 
acceptable

>  <original ID>  (4) 
JUPWGDGDXRJYAC-VYUIOLGVSA-N

>  <HIPPO Pose ID>  (4) 
55411

$$$$
55495
     RDKit          3D

 15 15  0  0  0  0  0  0  0  0999 V2000
  -23.7410  -64.0055    1.7001 C   0  0  0  0  0  0  0  0  0  0  0  0
  -24.7803  -63.1544    0.9896 C   0  0  0  0  0  0  0  0  0  0  0  0
  -24.2321  -62.6537   -0.2342 O   0  0  0  0  0  0  0  0  0  0  0  0
  -24.5266  -61.3832   -0.5274 C   0  0  0  0  0  0  0  0  0  0  0  0
  -25.1641  -60.8201   -1.6190 C   0  0  0  0  0  0  0  0  0  0  0  0
  -25.6653  -61.4925   -2.6665 F   0  0  0  0  0  0  0  0  0  0  0  0
  -25.2221  -59.4234   -1.4338 C   0  0  0  0  0  0  0  0  0  0  0  0
  -25.7640  -58.5032   -2.2615 O   0  0  0  0  0  0  0  0  0  0  0  0
  -25.7518  -57.1881   -1.7190 C   0  0  0  0  0  0  0  0  0  0  0  0
  -24.4763  -56.7148   -1.7173 F   0  0  0  0  0  0  0  0  0  0  0  0
  -24.6039  -59.1564   -0.2359 C   0  0  0  0  0  0  0  0  0  0  0  0
  -24.0717  -60.3252    0.2340 N   0  0  0  0  0  0  0  0  0  0  0  0
  -23.1413  -60.3969    1.3462 C   0  0  0  0  0  0  0  0  0  0  0  0
  -22.0880  -59.2899    1.3712 C   0  0  0  0  0  0  0  0  0  0  0  0
  -21.2256  -59.3990    0.2445 O   0  0  0  0  0  0  0  0  0  0  0  0
  1  2  1  0
  2  3  1  0
  3  4  1  0
  4  5  2  0
  5  6  1  0
  5  7  1  0
  7  8  1  0
  8  9  1  0
  9 10  1  0
  7 11  2  0
 11 12  1  0
 12 13  1  0
 13 14  1  0
 14 15  1  0
 12  4  1  0
M  END
>  <fragmenstein_runtime>  (5) 
1.904643

>  <csv_name>  (5) 
RdRp_fstein_cavity_b_split1000_batch000.csv

>  <scratch_subdir>  (5) 
/opt/xchem-fragalysis-2/maxwin/BulkDock/SCRATCH/216971/C66377-P179

>  <SLURM_JOB_NAME>  (5) 
BulkDock.place:Flavi_NS5_RdRp:RdRp_fstein_cavity_b_split1000_batch000

>  <tags>  (5) 
['Fragmenstein placed']

>  <energy_score>  (5) 
-5.187342

>  <original SMILES>  (5) 
CCOc1c(F)c(OCF)cn1CCO

>  <exports>  (5) 
['/opt/xchem-fragalysis-2/maxwin/BulkDock/OUTPUTS/RdRp_fstein_cavity_b_split1000_batch000_216971.sdf']

>  <inchikey>  (5) 
FXWUFOGGNPSQNU-UHFFFAOYSA-N

>  <ref_pdb>  (5) 
z0898a

>  <alias>  (5) 
None

>  <fragmenstein_error>  (5) 
None

>  <name>  (5) 
FXWUFOGGNPSQNU-UHFFFAOYSA-N

>  <SLURM_JOB_ID>  (5) 
216971

>  <fragmenstein_mode>  (5) 
expansion

>  <HIPPO Compound ID>  (5) 
66377

>  <ref_mols>  (5) 
z0767a,z0898a

>  <distance_score>  (5) 
0.902828

>  <fragmenstein_outcome>  (5) 
acceptable

>  <original ID>  (5) 
FXWUFOGGNPSQNU-UHFFFAOYSA-N

>  <HIPPO Pose ID>  (5) 
55495

$$$$
