DNV2_NS5A-x0174_A_1608_1_DNV2_NS5A-x0249+A+1707+1
     RDKit          3D

 16 17  0  0  0  0  0  0  0  0999 V2000
  -14.5260  -69.9790  -19.0550 O   0  0  0  0  0  0  0  0  0  0  0  0
  -13.8380  -69.6370  -20.2620 S   0  0  0  0  0  0  0  0  0  0  0  0
  -13.0170  -68.4660  -20.2910 O   0  0  0  0  0  0  0  0  0  0  0  0
  -15.0450  -69.4890  -21.5600 C   0  0  0  0  0  0  0  0  0  0  0  0
  -14.4150  -69.4670  -22.9280 C   0  0  0  0  0  0  0  0  0  0  0  0
  -12.8600  -70.9160  -20.6410 N   0  0  0  0  0  0  0  0  0  0  0  0
  -11.5650  -70.7230  -21.3130 C   0  0  0  0  0  0  0  0  0  0  0  0
  -10.3650  -70.9940  -20.4370 C   0  0  0  0  0  0  0  0  0  0  0  0
   -9.0840  -70.7120  -20.9060 C   0  0  0  0  0  0  0  0  0  0  0  0
   -8.0010  -70.9900  -20.0990 C   0  0  0  0  0  0  0  0  0  0  0  0
   -6.6650  -70.7580  -20.3430 O   0  0  0  0  0  0  0  0  0  0  0  0
   -6.0100  -71.0190  -19.0990 C   0  0  0  0  0  0  0  0  0  0  0  0
   -6.9370  -71.6950  -18.2470 O   0  0  0  0  0  0  0  0  0  0  0  0
   -8.1640  -71.5420  -18.8550 C   0  0  0  0  0  0  0  0  0  0  0  0
   -9.4190  -71.8390  -18.3620 C   0  0  0  0  0  0  0  0  0  0  0  0
  -10.5140  -71.5510  -19.1640 C   0  0  0  0  0  0  0  0  0  0  0  0
  5  4  1  0
  4  2  1  0
  3  2  2  0
  2  1  2  0
  6  2  1  0
  7  6  1  0
  8  7  1  0
  8 16  2  0
 16 15  1  0
 15 14  2  0
 14 13  1  0
 13 12  1  0
 12 11  1  0
 11 10  1  0
 14 10  1  0
 10  9  2  0
  9  8  1  0
M  END
>  <id>  (1) 
17

>  <inchikey>  (1) 
UKPLBUIFSDRLEZ-UHFFFAOYSA-N

>  <alias>  (1) 
d0174a

>  <name>  (1) 
d0174a

>  <smiles>  (1) 
CCS(=O)(=O)NCc1ccc2c(c1)OCO2

>  <path>  (1) 
/opt/xchem-fragalysis-2/maxwin/BulkDock/TARGETS/Flavi_NS5_RdRp/aligned_files/d0174a/d0174a.pdb

>  <distance_score>  (1) 
None

>  <energy_score>  (1) 
None

>  <compound>  (1) 
UKPLBUIFSDRLEZ-UHFFFAOYSA-N

>  <compound_id>  (1) 
14

>  <target>  (1) 
Flavi_NS5_RdRp

$$$$
DNV2_NS5A-x0176_A_1701_1_DNV2_NS5A-x0249+A+1707+1
     RDKit          3D

 17 18  0  0  0  0  0  0  0  0999 V2000
   -5.8770  -72.4050  -17.4710 O   0  0  0  0  0  0  0  0  0  0  0  0
   -6.1460  -71.8840  -18.5340 C   0  0  0  0  0  0  0  0  0  0  0  0
   -5.0430  -71.4420  -19.4580 C   0  0  0  0  0  0  0  0  0  0  0  0
   -4.7340  -70.0950  -19.5860 C   0  0  0  0  0  0  0  0  0  0  0  0
   -5.4310  -69.2150  -18.8350 F   0  0  0  0  0  0  0  0  0  0  0  0
   -3.7650  -69.6130  -20.4320 C   0  0  0  0  0  0  0  0  0  0  0  0
   -3.0530  -70.5160  -21.2020 C   0  0  0  0  0  0  0  0  0  0  0  0
   -3.3110  -71.8740  -21.1130 C   0  0  0  0  0  0  0  0  0  0  0  0
   -4.2890  -72.3000  -20.2470 C   0  0  0  0  0  0  0  0  0  0  0  0
   -4.5290  -73.6250  -20.1480 F   0  0  0  0  0  0  0  0  0  0  0  0
   -7.4130  -71.6930  -18.9420 N   0  0  0  0  0  0  0  0  0  0  0  0
   -8.5400  -72.0800  -18.0870 C   0  0  0  0  0  0  0  0  0  0  0  0
   -9.4020  -70.9100  -17.6510 C   0  0  0  0  0  0  0  0  0  0  0  0
  -10.5400  -70.5730  -18.5950 C   0  0  0  0  0  0  0  0  0  0  0  0
  -10.1320  -70.2730  -20.0220 C   0  0  0  0  0  0  0  0  0  0  0  0
   -8.6660  -69.9530  -20.2300 C   0  0  0  0  0  0  0  0  0  0  0  0
   -7.7460  -71.1570  -20.2650 C   0  0  0  0  0  0  0  0  0  0  0  0
 10  9  1  0
  9  8  1  0
  8  7  2  0
  7  6  1  0
  6  4  2  0
  5  4  1  0
  4  3  1  0
  9  3  2  0
  3  2  1  0
  2  1  2  0
 11  2  1  0
 11 17  1  0
 17 16  1  0
 16 15  1  0
 15 14  1  0
 14 13  1  0
 13 12  1  0
 12 11  1  0
M  END
>  <id>  (2) 
18

>  <inchikey>  (2) 
RRINWFXOXXUQGK-UHFFFAOYSA-N

>  <alias>  (2) 
d0176a

>  <name>  (2) 
d0176a

>  <smiles>  (2) 
O=C(c1c(F)cccc1F)N1CCCCCC1

>  <path>  (2) 
/opt/xchem-fragalysis-2/maxwin/BulkDock/TARGETS/Flavi_NS5_RdRp/aligned_files/d0176a/d0176a.pdb

>  <distance_score>  (2) 
None

>  <energy_score>  (2) 
None

>  <compound>  (2) 
RRINWFXOXXUQGK-UHFFFAOYSA-N

>  <compound_id>  (2) 
15

>  <target>  (2) 
Flavi_NS5_RdRp

$$$$
DNV2_NS5A-x0248_A_1608_1_DNV2_NS5A-x0249+A+1707+1
     RDKit          3D

 15 15  0  0  0  0  0  0  0  0999 V2000
   -7.0320  -71.1660  -20.4820 Cl  0  0  0  0  0  0  0  0  0  0  0  0
   -8.7430  -71.0200  -20.1870 C   0  0  0  0  0  0  0  0  0  0  0  0
   -9.2120  -71.1280  -18.8950 C   0  0  0  0  0  0  0  0  0  0  0  0
  -10.5600  -70.9230  -18.6570 C   0  0  0  0  0  0  0  0  0  0  0  0
  -11.4220  -70.6340  -19.6990 C   0  0  0  0  0  0  0  0  0  0  0  0
   -9.5880  -70.7500  -21.2480 C   0  0  0  0  0  0  0  0  0  0  0  0
  -10.9480  -70.5620  -21.0070 C   0  0  0  0  0  0  0  0  0  0  0  0
  -11.8990  -70.3120  -22.1350 C   0  0  0  0  0  0  0  0  0  0  0  0
  -11.5080  -69.8210  -23.1900 O   0  0  0  0  0  0  0  0  0  0  0  0
  -13.1850  -70.6790  -21.9440 N   0  0  0  0  0  0  0  0  0  0  0  0
  -14.3290  -70.5310  -22.8740 C   0  0  0  0  0  0  0  0  0  0  0  0
  -14.3380  -69.1100  -23.4320 C   0  0  0  0  0  0  0  0  0  0  0  0
  -15.6200  -70.7710  -22.0890 C   0  0  0  0  0  0  0  0  0  0  0  0
  -14.2780  -71.5420  -24.0360 C   0  0  0  0  0  0  0  0  0  0  0  0
  -13.0170  -71.6100  -24.6870 O   0  0  0  0  0  0  0  0  0  0  0  0
 12 11  1  0
 13 11  1  0
 14 11  1  0
 15 14  1  0
 11 10  1  0
 10  8  1  0
  9  8  2  0
  8  7  1  0
  7  5  1  0
  5  4  2  0
  4  3  1  0
  3  2  2  0
  2  1  1  0
  6  2  1  0
  7  6  2  0
M  END
>  <id>  (3) 
22

>  <inchikey>  (3) 
XZDXDRPMHCVWBK-UHFFFAOYSA-N

>  <alias>  (3) 
d0248a

>  <name>  (3) 
d0248a

>  <smiles>  (3) 
CC(C)(CO)NC(=O)c1cccc(Cl)c1

>  <path>  (3) 
/opt/xchem-fragalysis-2/maxwin/BulkDock/TARGETS/Flavi_NS5_RdRp/aligned_files/d0248a/d0248a.pdb

>  <distance_score>  (3) 
None

>  <energy_score>  (3) 
None

>  <compound>  (3) 
XZDXDRPMHCVWBK-UHFFFAOYSA-N

>  <compound_id>  (3) 
18

>  <target>  (3) 
Flavi_NS5_RdRp

$$$$
DNV2_NS5A-x0279_A_1608_1_DNV2_NS5A-x0249+A+1707+1
     RDKit          3D

 14 15  0  0  0  0  0  0  0  0999 V2000
  -11.4380  -70.0300  -20.7050 F   0  0  0  0  0  0  0  0  0  0  0  0
  -10.1750  -70.4220  -20.3810 C   0  0  0  0  0  0  0  0  0  0  0  0
   -9.9850  -71.3320  -19.3710 C   0  0  0  0  0  0  0  0  0  0  0  0
   -8.7520  -71.7210  -19.0030 N   0  0  0  0  0  0  0  0  0  0  0  0
   -7.6990  -71.1840  -19.6470 C   0  0  0  0  0  0  0  0  0  0  0  0
   -7.8490  -70.2460  -20.6770 C   0  0  0  0  0  0  0  0  0  0  0  0
   -9.1260  -69.8760  -21.0540 C   0  0  0  0  0  0  0  0  0  0  0  0
   -6.4400  -71.5750  -19.2490 N   0  0  0  0  0  0  0  0  0  0  0  0
   -5.2400  -71.5040  -20.0880 C   0  0  0  0  0  0  0  0  0  0  0  0
   -4.2680  -72.6290  -19.7650 C   0  0  0  0  0  0  0  0  0  0  0  0
   -3.0110  -72.4640  -20.5840 C   0  0  0  0  0  0  0  0  0  0  0  0
   -2.3920  -71.1940  -20.3430 O   0  0  0  0  0  0  0  0  0  0  0  0
   -3.2630  -70.1340  -20.7410 C   0  0  0  0  0  0  0  0  0  0  0  0
   -4.5500  -70.1520  -19.9520 C   0  0  0  0  0  0  0  0  0  0  0  0
  2  1  1  0
  2  7  2  0
  7  6  1  0
  6  5  2  0
  8  5  1  0
  9  8  1  0
  9 14  1  0
 14 13  1  0
 13 12  1  0
 12 11  1  0
 11 10  1  0
 10  9  1  0
  5  4  1  0
  4  3  2  0
  3  2  1  0
M  END
>  <id>  (4) 
29

>  <inchikey>  (4) 
DGYWCGILBGNERL-UHFFFAOYSA-N

>  <alias>  (4) 
d0279a

>  <name>  (4) 
d0279a

>  <smiles>  (4) 
Fc1ccc(NC2CCOCC2)nc1

>  <path>  (4) 
/opt/xchem-fragalysis-2/maxwin/BulkDock/TARGETS/Flavi_NS5_RdRp/aligned_files/d0279a/d0279a.pdb

>  <distance_score>  (4) 
None

>  <energy_score>  (4) 
None

>  <compound>  (4) 
DGYWCGILBGNERL-UHFFFAOYSA-N

>  <compound_id>  (4) 
25

>  <target>  (4) 
Flavi_NS5_RdRp

$$$$
DNV2_NS5A-x0376_A_1608_1_DNV2_NS5A-x0249+A+1707+1
     RDKit          3D

 16 17  0  0  0  0  0  0  0  0999 V2000
   -6.4280  -72.6450  -21.5430 O   0  0  0  0  0  0  0  0  0  0  0  0
   -6.4170  -71.8730  -20.5950 C   0  0  0  0  0  0  0  0  0  0  0  0
   -7.7230  -71.4680  -20.0230 C   0  0  0  0  0  0  0  0  0  0  0  0
   -8.9560  -70.6680  -20.9380 S   0  0  0  0  0  0  0  0  0  0  0  0
  -10.0000  -70.6220  -19.6020 C   0  0  0  0  0  0  0  0  0  0  0  0
   -9.4690  -71.1860  -18.4970 C   0  0  0  0  0  0  0  0  0  0  0  0
   -8.1310  -71.6920  -18.7130 C   0  0  0  0  0  0  0  0  0  0  0  0
   -5.2630  -71.3980  -20.0790 N   0  0  0  0  0  0  0  0  0  0  0  0
   -5.1330  -70.4250  -18.9860 C   0  0  0  0  0  0  0  0  0  0  0  0
   -4.2120  -69.2840  -19.4080 C   0  0  0  0  0  0  0  0  0  0  0  0
   -3.9510  -71.8690  -20.5420 C   0  0  0  0  0  0  0  0  0  0  0  0
   -3.1020  -70.6950  -20.9780 C   0  0  0  0  0  0  0  0  0  0  0  0
   -2.8950  -69.7840  -19.8480 N   0  0  0  0  0  0  0  0  0  0  0  0
   -1.8840  -68.7160  -19.9970 C   0  0  0  0  0  0  0  0  0  0  0  0
   -0.6590  -69.1460  -20.7880 C   0  0  0  0  0  0  0  0  0  0  0  0
   -2.4580  -67.4170  -20.5360 C   0  0  0  0  0  0  0  0  0  0  0  0
 16 14  1  0
 15 14  1  0
 14 13  1  0
 13 10  1  0
 10  9  1  0
  9  8  1  0
 11  8  1  0
 12 11  1  0
 13 12  1  0
  8  2  1  0
  2  1  2  0
  3  2  1  0
  3  7  2  0
  7  6  1  0
  6  5  2  0
  5  4  1  0
  4  3  1  0
M  END
>  <id>  (5) 
33

>  <inchikey>  (5) 
ZEVVAPJSMUTCRY-UHFFFAOYSA-N

>  <alias>  (5) 
d0376a

>  <name>  (5) 
d0376a

>  <smiles>  (5) 
CC(C)N1CCN(C(=O)c2cccs2)CC1

>  <path>  (5) 
/opt/xchem-fragalysis-2/maxwin/BulkDock/TARGETS/Flavi_NS5_RdRp/aligned_files/d0376a/d0376a.pdb

>  <distance_score>  (5) 
None

>  <energy_score>  (5) 
None

>  <compound>  (5) 
ZEVVAPJSMUTCRY-UHFFFAOYSA-N

>  <compound_id>  (5) 
29

>  <target>  (5) 
Flavi_NS5_RdRp

$$$$
DNV2_NS5A-x0379_A_2101_1_DNV2_NS5A-x0249+A+1707+1
     RDKit          3D

 15 16  0  0  0  0  0  0  0  0999 V2000
   -6.8010  -72.5920  -17.4750 O   0  0  0  0  0  0  0  0  0  0  0  0
   -7.4130  -71.9720  -18.3370 C   0  0  0  0  0  0  0  0  0  0  0  0
   -8.7590  -71.5100  -18.2250 C   0  0  0  0  0  0  0  0  0  0  0  0
   -9.3660  -70.8600  -19.2330 C   0  0  0  0  0  0  0  0  0  0  0  0
   -8.6420  -70.6310  -20.4330 C   0  0  0  0  0  0  0  0  0  0  0  0
   -9.2710  -69.9280  -21.5920 C   0  0  0  0  0  0  0  0  0  0  0  0
   -7.4110  -71.0220  -20.5910 N   0  0  0  0  0  0  0  0  0  0  0  0
   -6.8190  -71.6810  -19.5460 N   0  0  0  0  0  0  0  0  0  0  0  0
   -5.4510  -72.0920  -19.7910 C   0  0  0  0  0  0  0  0  0  0  0  0
   -4.6670  -70.8780  -20.1390 C   0  0  0  0  0  0  0  0  0  0  0  0
   -3.7760  -70.5930  -21.0990 C   0  0  0  0  0  0  0  0  0  0  0  0
   -4.8460  -69.8030  -19.3460 O   0  0  0  0  0  0  0  0  0  0  0  0
   -4.0190  -68.7590  -19.8230 N   0  0  0  0  0  0  0  0  0  0  0  0
   -3.3890  -69.2640  -20.8670 C   0  0  0  0  0  0  0  0  0  0  0  0
   -2.3940  -68.4410  -21.6220 C   0  0  0  0  0  0  0  0  0  0  0  0
 15 14  1  0
 14 11  1  0
 11 10  2  0
 10  9  1  0
  9  8  1  0
  8  7  1  0
  7  5  2  0
  6  5  1  0
  5  4  1  0
  4  3  2  0
  3  2  1  0
  8  2  1  0
  2  1  2  0
 12 10  1  0
 13 12  1  0
 14 13  2  0
M  END
>  <id>  (6) 
35

>  <inchikey>  (6) 
PLCLGFAKZPXQFY-UHFFFAOYSA-N

>  <alias>  (6) 
d0379a

>  <name>  (6) 
d0379a

>  <smiles>  (6) 
Cc1cc(Cn2nc(C)ccc2=O)on1

>  <path>  (6) 
/opt/xchem-fragalysis-2/maxwin/BulkDock/TARGETS/Flavi_NS5_RdRp/aligned_files/d0379a/d0379a.pdb

>  <distance_score>  (6) 
None

>  <energy_score>  (6) 
None

>  <compound>  (6) 
PLCLGFAKZPXQFY-UHFFFAOYSA-N

>  <compound_id>  (6) 
30

>  <target>  (6) 
Flavi_NS5_RdRp

$$$$
None
     RDKit          3D

 14 15  0  0  0  0  0  0  0  0999 V2000
   -6.9400  -73.2130  -20.3990 O   0  0  0  0  0  0  0  0  0  0  0  0
   -6.9300  -72.2400  -19.3640 S   0  0  0  0  0  0  0  0  0  0  0  0
   -6.8970  -72.6270  -17.9980 O   0  0  0  0  0  0  0  0  0  0  0  0
   -8.1930  -71.2890  -19.5840 N   0  0  0  0  0  0  0  0  0  0  0  0
   -9.4630  -71.4790  -18.8540 C   0  0  0  0  0  0  0  0  0  0  0  0
  -10.3910  -70.4830  -19.5120 C   0  0  0  0  0  0  0  0  0  0  0  0
   -9.9080  -70.4040  -20.9270 C   0  0  0  0  0  0  0  0  0  0  0  0
   -8.4000  -70.5270  -20.8340 C   0  0  0  0  0  0  0  0  0  0  0  0
   -5.7140  -71.2340  -19.6310 N   0  0  0  0  0  0  0  0  0  0  0  0
   -5.1860  -70.0520  -18.8990 C   0  0  0  0  0  0  0  0  0  0  0  0
   -4.6810  -71.0910  -20.6910 C   0  0  0  0  0  0  0  0  0  0  0  0
   -4.5020  -69.6430  -20.2120 C   0  0  0  0  0  0  0  0  0  0  0  0
   -3.1070  -69.3860  -20.0510 O   0  0  0  0  0  0  0  0  0  0  0  0
   -2.3910  -69.3530  -21.2680 C   0  0  0  0  0  0  0  0  0  0  0  0
 14 13  1  0
 13 12  1  0
 12 10  1  0
 10  9  1  0
 11  9  1  0
 12 11  1  0
  9  2  1  0
  3  2  2  0
  2  1  2  0
  4  2  1  0
  4  8  1  0
  8  7  1  0
  7  6  1  0
  6  5  1  0
  5  4  1  0
M  END
>  <id>  (7) 
44

>  <inchikey>  (7) 
KONUKKZPOYOKNK-UHFFFAOYSA-N

>  <alias>  (7) 
d0503a

>  <name>  (7) 
d0503a

>  <smiles>  (7) 
COC1CN(S(=O)(=O)N2CCCC2)C1

>  <path>  (7) 
/opt/xchem-fragalysis-2/maxwin/BulkDock/TARGETS/Flavi_NS5_RdRp/aligned_files/d0503a/d0503a.pdb

>  <distance_score>  (7) 
None

>  <energy_score>  (7) 
None

>  <compound>  (7) 
KONUKKZPOYOKNK-UHFFFAOYSA-N

>  <compound_id>  (7) 
37

>  <target>  (7) 
Flavi_NS5_RdRp

$$$$
None
     RDKit          3D

 16 17  0  0  0  0  0  0  0  0999 V2000
   -3.1800  -70.6910  -21.5760 O   0  0  0  0  0  0  0  0  0  0  0  0
   -3.6470  -70.0960  -20.6240 C   0  0  0  0  0  0  0  0  0  0  0  0
   -3.3160  -68.8570  -20.2440 N   0  0  0  0  0  0  0  0  0  0  0  0
   -2.5250  -67.9470  -21.0580 C   0  0  0  0  0  0  0  0  0  0  0  0
   -4.6880  -70.6230  -19.6360 C   0  0  1  0  0  0  0  0  0  0  0  0
   -4.5010  -69.7110  -18.4180 C   0  0  0  0  0  0  0  0  0  0  0  0
   -3.7910  -68.4600  -18.9280 C   0  0  0  0  0  0  0  0  0  0  0  0
   -6.0040  -70.5010  -20.2070 O   0  0  0  0  0  0  0  0  0  0  0  0
   -7.0970  -70.9910  -19.5220 C   0  0  0  0  0  0  0  0  0  0  0  0
   -8.3420  -70.6880  -20.0630 C   0  0  0  0  0  0  0  0  0  0  0  0
   -8.4070  -69.9380  -21.1770 F   0  0  0  0  0  0  0  0  0  0  0  0
   -9.5520  -71.0910  -19.5130 C   0  0  0  0  0  0  0  0  0  0  0  0
  -10.8980  -70.7560  -20.1050 C   0  0  0  0  0  0  0  0  0  0  0  0
   -9.4750  -71.8420  -18.3430 C   0  0  0  0  0  0  0  0  0  0  0  0
   -8.2540  -72.1590  -17.7680 C   0  0  0  0  0  0  0  0  0  0  0  0
   -7.0680  -71.7410  -18.3520 C   0  0  0  0  0  0  0  0  0  0  0  0
  4  3  1  0
  3  7  1  0
  7  6  1  0
  6  5  1  0
  5  8  1  6
  9  8  1  0
  9 16  2  0
 16 15  1  0
 15 14  2  0
 14 12  1  0
 13 12  1  0
 12 10  2  0
 10  9  1  0
 11 10  1  0
  5  2  1  0
  3  2  1  0
  2  1  2  0
M  END
>  <id>  (8) 
45

>  <inchikey>  (8) 
ZGHOVIJLBUUPON-SNVBAGLBSA-N

>  <alias>  (8) 
d0566a

>  <name>  (8) 
d0566a

>  <smiles>  (8) 
Cc1cccc(O[C@@H]2CCN(C)C2=O)c1F

>  <path>  (8) 
/opt/xchem-fragalysis-2/maxwin/BulkDock/TARGETS/Flavi_NS5_RdRp/aligned_files/d0566a/d0566a.pdb

>  <distance_score>  (8) 
None

>  <energy_score>  (8) 
None

>  <compound>  (8) 
ZGHOVIJLBUUPON-UHFFFAOYSA-N

>  <compound_id>  (8) 
38

>  <target>  (8) 
Flavi_NS5_RdRp

$$$$
DNV2_NS5A-x0587_A_1801_1_DNV2_NS5A-x0249+A+1707+1
     RDKit          3D

 15 16  0  0  0  0  0  0  0  0999 V2000
   -9.6800  -71.2580  -17.3890 Cl  0  0  0  0  0  0  0  0  0  0  0  0
   -9.7600  -71.2390  -19.1270 C   0  0  0  0  0  0  0  0  0  0  0  0
  -10.8380  -70.5820  -19.7040 C   0  0  0  0  0  0  0  0  0  0  0  0
  -10.8020  -70.0660  -20.9340 N   0  0  0  0  0  0  0  0  0  0  0  0
   -9.6570  -70.2200  -21.5840 C   0  0  0  0  0  0  0  0  0  0  0  0
   -8.5510  -70.8270  -21.1560 N   0  0  0  0  0  0  0  0  0  0  0  0
   -8.6130  -71.3480  -19.9200 C   0  0  0  0  0  0  0  0  0  0  0  0
   -7.5070  -72.0570  -19.5180 N   0  0  0  0  0  0  0  0  0  0  0  0
   -7.4030  -72.7710  -18.2490 C   0  0  0  0  0  0  0  0  0  0  0  0
   -6.3570  -72.1930  -20.4120 C   0  0  0  0  0  0  0  0  0  0  0  0
   -4.9870  -71.8380  -19.8190 C   0  0  2  0  0  0  0  0  0  0  0  0
   -4.7880  -70.3350  -19.5900 C   0  0  0  0  0  0  0  0  0  0  0  0
   -3.4450  -70.0410  -19.9630 O   0  0  0  0  0  0  0  0  0  0  0  0
   -3.1820  -70.8560  -21.0840 C   0  0  0  0  0  0  0  0  0  0  0  0
   -3.8210  -72.1860  -20.7670 C   0  0  0  0  0  0  0  0  0  0  0  0
  9  8  1  0
 10  8  1  0
 11 10  1  6
 11 15  1  0
 15 14  1  0
 14 13  1  0
 13 12  1  0
 12 11  1  0
  8  7  1  0
  7  6  2  0
  6  5  1  0
  5  4  2  0
  4  3  1  0
  3  2  2  0
  7  2  1  0
  2  1  1  0
M  END
>  <id>  (9) 
48

>  <inchikey>  (9) 
OYKZBUOZAYBEHE-MRVPVSSYSA-N

>  <alias>  (9) 
d0587a

>  <name>  (9) 
d0587a

>  <smiles>  (9) 
CN(C[C@H]1CCOC1)c1ncncc1Cl

>  <path>  (9) 
/opt/xchem-fragalysis-2/maxwin/BulkDock/TARGETS/Flavi_NS5_RdRp/aligned_files/d0587a/d0587a.pdb

>  <distance_score>  (9) 
None

>  <energy_score>  (9) 
None

>  <compound>  (9) 
OYKZBUOZAYBEHE-UHFFFAOYSA-N

>  <compound_id>  (9) 
41

>  <target>  (9) 
Flavi_NS5_RdRp

$$$$
DNV2_NS5A-x0615_A_1608_1_DNV2_NS5A-x0249+A+1707+1
     RDKit          3D

 15 16  0  0  0  0  0  0  0  0999 V2000
   -9.9770  -70.4000  -24.2040 F   0  0  0  0  0  0  0  0  0  0  0  0
  -10.3170  -70.3840  -22.8830 C   0  0  0  0  0  0  0  0  0  0  0  0
  -11.6190  -70.1390  -22.5230 C   0  0  0  0  0  0  0  0  0  0  0  0
  -11.9820  -70.0550  -21.2380 N   0  0  0  0  0  0  0  0  0  0  0  0
  -11.0340  -70.2290  -20.3060 C   0  0  0  0  0  0  0  0  0  0  0  0
   -9.3340  -70.5690  -21.9440 C   0  0  0  0  0  0  0  0  0  0  0  0
   -9.6950  -70.4920  -20.6020 C   0  0  0  0  0  0  0  0  0  0  0  0
   -8.7480  -70.6630  -19.6050 N   0  0  0  0  0  0  0  0  0  0  0  0
   -7.9260  -71.8530  -19.4540 C   0  0  0  0  0  0  0  0  0  0  0  0
   -6.4770  -71.6580  -19.8090 C   0  0  0  0  0  0  0  0  0  0  0  0
   -5.7780  -72.2410  -20.8040 C   0  0  0  0  0  0  0  0  0  0  0  0
   -4.4830  -71.8200  -20.9930 N   0  0  0  0  0  0  0  0  0  0  0  0
   -5.4580  -70.5080  -19.0050 S   0  0  0  0  0  0  0  0  0  0  0  0
   -4.1850  -70.8990  -20.1230 C   0  0  0  0  0  0  0  0  0  0  0  0
   -2.8820  -70.1730  -20.1080 C   0  0  0  0  0  0  0  0  0  0  0  0
 15 14  1  0
 14 12  2  0
 12 11  1  0
 11 10  2  0
 10  9  1  0
  9  8  1  0
  8  7  1  0
  7  5  1  0
  5  4  2  0
  4  3  1  0
  3  2  2  0
  2  1  1  0
  6  2  1  0
  7  6  2  0
 13 10  1  0
 14 13  1  0
M  END
>  <id>  (10) 
50

>  <inchikey>  (10) 
SSOIKBIBPGCZFT-UHFFFAOYSA-N

>  <alias>  (10) 
d0615a

>  <name>  (10) 
d0615a

>  <smiles>  (10) 
Cc1ncc(CNc2cncc(F)c2)s1

>  <path>  (10) 
/opt/xchem-fragalysis-2/maxwin/BulkDock/TARGETS/Flavi_NS5_RdRp/aligned_files/d0615a/d0615a_hippo.pdb

>  <distance_score>  (10) 
None

>  <energy_score>  (10) 
None

>  <compound>  (10) 
SSOIKBIBPGCZFT-UHFFFAOYSA-N

>  <compound_id>  (10) 
43

>  <target>  (10) 
Flavi_NS5_RdRp

$$$$
DNV2_NS5A-x0693_A_1707_1_DNV2_NS5A-x0249+A+1707+1
     RDKit          3D

 18 20  0  0  0  0  0  0  0  0999 V2000
   -2.3110  -67.9860  -21.6070 N   0  0  0  0  0  0  0  0  0  0  0  0
   -2.9640  -68.7750  -21.1030 C   0  0  0  0  0  0  0  0  0  0  0  0
   -3.8140  -69.7360  -20.4460 C   0  0  0  0  0  0  0  0  0  0  0  0
   -4.6120  -69.3470  -19.3720 C   0  0  0  0  0  0  0  0  0  0  0  0
   -5.5100  -70.2430  -18.8180 C   0  0  0  0  0  0  0  0  0  0  0  0
   -5.6390  -71.5320  -19.3160 C   0  0  0  0  0  0  0  0  0  0  0  0
   -4.8090  -71.9230  -20.3580 C   0  0  0  0  0  0  0  0  0  0  0  0
   -3.9060  -71.0410  -20.9250 C   0  0  0  0  0  0  0  0  0  0  0  0
   -6.7120  -72.4560  -18.7930 C   0  0  0  0  0  0  0  0  0  0  0  0
   -8.0110  -71.7960  -18.6230 N   0  0  0  0  0  0  0  0  0  0  0  0
   -8.7840  -71.2310  -19.6250 C   0  0  0  0  0  0  0  0  0  0  0  0
   -9.9350  -70.7680  -18.9880 C   0  0  0  0  0  0  0  0  0  0  0  0
   -9.8640  -71.0320  -17.6160 N   0  0  0  0  0  0  0  0  0  0  0  0
   -8.7120  -71.6350  -17.4630 C   0  0  0  0  0  0  0  0  0  0  0  0
   -8.5850  -71.0810  -20.9910 C   0  0  0  0  0  0  0  0  0  0  0  0
   -9.5870  -70.4570  -21.7250 C   0  0  0  0  0  0  0  0  0  0  0  0
  -10.7500  -70.0010  -21.1060 C   0  0  0  0  0  0  0  0  0  0  0  0
  -10.9350  -70.1490  -19.7360 C   0  0  0  0  0  0  0  0  0  0  0  0
  2  1  3  0
  3  2  1  0
  3  8  2  0
  8  7  1  0
  7  6  2  0
  9  6  1  0
 10  9  1  0
 10 14  1  0
 14 13  2  0
 13 12  1  0
 12 18  2  0
 18 17  1  0
 17 16  2  0
 16 15  1  0
 15 11  2  0
 11 10  1  0
 12 11  1  0
  6  5  1  0
  5  4  2  0
  4  3  1  0
M  END
>  <id>  (11) 
53

>  <inchikey>  (11) 
KZMYEQMVROHICO-UHFFFAOYSA-N

>  <alias>  (11) 
d0693a

>  <name>  (11) 
d0693a

>  <smiles>  (11) 
N#Cc1ccc(Cn2cnc3ccccc32)cc1

>  <path>  (11) 
/opt/xchem-fragalysis-2/maxwin/BulkDock/TARGETS/Flavi_NS5_RdRp/aligned_files/d0693a/d0693a.pdb

>  <distance_score>  (11) 
None

>  <energy_score>  (11) 
None

>  <compound>  (11) 
KZMYEQMVROHICO-UHFFFAOYSA-N

>  <compound_id>  (11) 
45

>  <target>  (11) 
Flavi_NS5_RdRp

$$$$
DNV2_NS5A-x0759_A_2101_1_DNV2_NS5A-x0249+A+1707+1
     RDKit          3D

 18 20  0  0  0  0  0  0  0  0999 V2000
   -5.4650  -72.3690  -20.8850 O   0  0  0  0  0  0  0  0  0  0  0  0
   -5.7190  -71.4140  -20.1790 C   0  0  0  0  0  0  0  0  0  0  0  0
   -7.1220  -71.1940  -19.7160 C   0  0  0  0  0  0  0  0  0  0  0  0
   -8.0370  -70.5400  -20.5400 C   0  0  0  0  0  0  0  0  0  0  0  0
   -9.3190  -70.3640  -20.0800 C   0  0  0  0  0  0  0  0  0  0  0  0
  -10.3800  -69.7630  -20.7190 O   0  0  0  0  0  0  0  0  0  0  0  0
  -11.5020  -69.9560  -19.8540 C   0  0  0  0  0  0  0  0  0  0  0  0
  -11.0300  -70.5170  -18.6260 O   0  0  0  0  0  0  0  0  0  0  0  0
   -9.7040  -70.8120  -18.8430 C   0  0  0  0  0  0  0  0  0  0  0  0
   -8.8190  -71.4610  -18.0070 C   0  0  0  0  0  0  0  0  0  0  0  0
   -7.5220  -71.6500  -18.4560 C   0  0  0  0  0  0  0  0  0  0  0  0
   -4.7770  -70.5370  -19.8120 N   0  0  0  0  0  0  0  0  0  0  0  0
   -3.3850  -70.7100  -20.2380 C   0  0  0  0  0  0  0  0  0  0  0  0
   -3.0070  -69.8770  -21.4470 C   0  0  0  0  0  0  0  0  0  0  0  0
   -2.6500  -68.4390  -21.1400 C   0  0  0  0  0  0  0  0  0  0  0  0
   -3.6010  -67.7040  -20.2190 C   0  0  0  0  0  0  0  0  0  0  0  0
   -3.9240  -68.3760  -18.9040 C   0  0  0  0  0  0  0  0  0  0  0  0
   -5.0620  -69.3760  -18.9640 C   0  0  0  0  0  0  0  0  0  0  0  0
  2  1  2  0
 12  2  1  0
 12 18  1  0
 18 17  1  0
 17 16  1  0
 16 15  1  0
 15 14  1  0
 14 13  1  0
 13 12  1  0
  3  2  1  0
  3 11  2  0
 11 10  1  0
 10  9  2  0
  9  8  1  0
  8  7  1  0
  7  6  1  0
  6  5  1  0
  9  5  1  0
  5  4  2  0
  4  3  1  0
M  END
>  <id>  (12) 
56

>  <inchikey>  (12) 
ABPXISKFLMGPJG-UHFFFAOYSA-N

>  <alias>  (12) 
d0759a

>  <name>  (12) 
d0759a

>  <smiles>  (12) 
O=C(c1ccc2c(c1)OCO2)N1CCCCCC1

>  <path>  (12) 
/opt/xchem-fragalysis-2/maxwin/BulkDock/TARGETS/Flavi_NS5_RdRp/aligned_files/d0759a/d0759a.pdb

>  <distance_score>  (12) 
None

>  <energy_score>  (12) 
None

>  <compound>  (12) 
ABPXISKFLMGPJG-UHFFFAOYSA-N

>  <compound_id>  (12) 
48

>  <target>  (12) 
Flavi_NS5_RdRp

$$$$
DNV2_NS5A-x0787_A_2101_1_DNV2_NS5A-x0249+A+1707+1
     RDKit          3D

 18 20  0  0  0  0  0  0  0  0999 V2000
   -5.1190  -72.7190  -18.4300 O   0  0  0  0  0  0  0  0  0  0  0  0
   -5.3790  -71.8770  -19.2790 C   0  0  0  0  0  0  0  0  0  0  0  0
   -4.4230  -71.2710  -19.9980 N   0  0  0  0  0  0  0  0  0  0  0  0
   -4.6820  -70.2720  -21.0330 C   0  0  0  0  0  0  0  0  0  0  0  0
   -4.0400  -68.9540  -20.6460 C   0  0  0  0  0  0  0  0  0  0  0  0
   -2.9870  -71.5190  -19.8720 C   0  0  0  0  0  0  0  0  0  0  0  0
   -2.2730  -70.2390  -19.4590 C   0  0  0  0  0  0  0  0  0  0  0  0
   -2.5450  -69.1010  -20.4320 C   0  0  0  0  0  0  0  0  0  0  0  0
   -1.9060  -67.7990  -19.9820 C   0  0  0  0  0  0  0  0  0  0  0  0
   -6.8020  -71.5050  -19.5200 C   0  0  0  0  0  0  0  0  0  0  0  0
   -7.6340  -71.5990  -18.4210 O   0  0  0  0  0  0  0  0  0  0  0  0
   -8.8910  -71.2580  -18.8710 C   0  0  0  0  0  0  0  0  0  0  0  0
   -8.8470  -70.9500  -20.2230 C   0  0  0  0  0  0  0  0  0  0  0  0
   -7.4840  -71.1230  -20.6180 C   0  0  0  0  0  0  0  0  0  0  0  0
  -10.0450  -71.2120  -18.1160 C   0  0  0  0  0  0  0  0  0  0  0  0
  -11.2160  -70.8290  -18.7540 C   0  0  0  0  0  0  0  0  0  0  0  0
  -11.2110  -70.5020  -20.1040 C   0  0  0  0  0  0  0  0  0  0  0  0
  -10.0360  -70.5610  -20.8420 C   0  0  0  0  0  0  0  0  0  0  0  0
  9  8  1  0
  8  5  1  0
  5  4  1  0
  4  3  1  0
  6  3  1  0
  7  6  1  0
  8  7  1  0
  3  2  1  0
  2  1  2  0
 10  2  1  0
 10 14  2  0
 14 13  1  0
 13 18  2  0
 18 17  1  0
 17 16  2  0
 16 15  1  0
 15 12  2  0
 13 12  1  0
 12 11  1  0
 11 10  1  0
M  END
>  <id>  (13) 
59

>  <inchikey>  (13) 
XNQRJSVFBWPVGG-UHFFFAOYSA-N

>  <alias>  (13) 
d0787a

>  <name>  (13) 
d0787a

>  <smiles>  (13) 
CC1CCN(C(=O)c2cc3ccccc3o2)CC1

>  <path>  (13) 
/opt/xchem-fragalysis-2/maxwin/BulkDock/TARGETS/Flavi_NS5_RdRp/aligned_files/d0787a/d0787a.pdb

>  <distance_score>  (13) 
None

>  <energy_score>  (13) 
None

>  <compound>  (13) 
XNQRJSVFBWPVGG-UHFFFAOYSA-N

>  <compound_id>  (13) 
51

>  <target>  (13) 
Flavi_NS5_RdRp

$$$$
