None
     RDKit          3D

  9  9  0  0  0  0  0  0  0  0999 V2000
  -26.1530  -62.2180   -3.3860 Br  0  0  0  0  0  0  0  0  0  0  0  0
  -25.5440  -61.0300   -2.0830 C   0  0  0  0  0  0  0  0  0  0  0  0
  -25.4190  -59.6550   -2.1810 C   0  0  0  0  0  0  0  0  0  0  0  0
  -24.8590  -59.1600   -1.0920 N   0  0  0  0  0  0  0  0  0  0  0  0
  -24.6370  -60.2380   -0.3010 N   0  0  0  0  0  0  0  0  0  0  0  0
  -25.0590  -61.3710   -0.8640 C   0  0  0  0  0  0  0  0  0  0  0  0
  -23.9540  -60.1020    0.9830 C   0  0  0  0  0  0  0  0  0  0  0  0
  -22.7630  -59.1600    0.9410 C   0  0  0  0  0  0  0  0  0  0  0  0
  -21.6660  -59.7420    0.2370 O   0  0  0  0  0  0  0  0  0  0  0  0
  2  1  1  0
  2  6  2  0
  6  5  1  0
  7  5  1  0
  8  7  1  0
  9  8  1  0
  5  4  1  0
  4  3  2  0
  3  2  1  0
M  END
>  <id>  (1) 
163

>  <inchikey>  (1) 
REUWXYIZJBMWPB-UHFFFAOYSA-N

>  <alias>  (1) 
z0767a

>  <name>  (1) 
z0767a

>  <smiles>  (1) 
OCCn1cc(Br)cn1

>  <path>  (1) 
/opt/xchem-fragalysis-2/maxwin/BulkDock/TARGETS/Flavi_NS5_RdRp/aligned_files/z0767a/z0767a.pdb

>  <distance_score>  (1) 
None

>  <energy_score>  (1) 
None

>  <compound>  (1) 
REUWXYIZJBMWPB-UHFFFAOYSA-N

>  <compound_id>  (1) 
122

>  <target>  (1) 
Flavi_NS5_RdRp

$$$$
None
     RDKit          3D

 15 16  0  0  0  0  0  0  0  0999 V2000
  -26.1990  -62.1730   -3.2400 C   0  0  0  0  0  0  0  0  0  0  0  0
  -27.0820  -61.0520   -2.8510 C   0  0  0  0  0  0  0  0  0  0  0  0
  -26.3400  -59.7710   -2.5430 C   0  0  0  0  0  0  0  0  0  0  0  0
  -25.5160  -59.6510   -1.4330 C   0  0  0  0  0  0  0  0  0  0  0  0
  -24.8310  -58.4800   -1.1760 C   0  0  0  0  0  0  0  0  0  0  0  0
  -24.9810  -57.3860   -2.0200 C   0  0  0  0  0  0  0  0  0  0  0  0
  -25.7960  -57.5010   -3.1310 C   0  0  0  0  0  0  0  0  0  0  0  0
  -26.4660  -58.6790   -3.3850 C   0  0  0  0  0  0  0  0  0  0  0  0
  -24.3690  -56.1670   -1.7280 N   0  0  0  0  0  0  0  0  0  0  0  0
  -24.5600  -54.9020   -1.4220 C   0  0  0  0  0  0  0  0  0  0  0  0
  -26.2870  -54.9080   -1.1040 S   0  0  0  0  0  0  0  0  0  0  0  0
  -26.5770  -53.2010   -0.6610 C   0  0  0  0  0  0  0  0  0  0  0  0
  -25.5120  -52.2440   -1.1560 C   0  0  0  0  0  0  0  0  0  0  0  0
  -24.0700  -52.6250   -0.9480 C   0  0  0  0  0  0  0  0  0  0  0  0
  -23.6960  -53.9840   -1.3440 N   0  0  0  0  0  0  0  0  0  0  0  0
  2  1  1  0
  3  2  1  0
  3  8  2  0
  8  7  1  0
  7  6  2  0
  9  6  1  0
 10  9  1  0
 10 15  2  0
 15 14  1  0
 14 13  1  0
 13 12  1  0
 12 11  1  0
 11 10  1  0
  6  5  1  0
  5  4  2  0
  4  3  1  0
M  END
>  <id>  (2) 
174

>  <inchikey>  (2) 
OSKCNZZSIHVFTH-UHFFFAOYSA-N

>  <alias>  (2) 
z0892b

>  <name>  (2) 
z0892b

>  <smiles>  (2) 
CCc1ccc(NC2=NCCCS2)cc1

>  <path>  (2) 
/opt/xchem-fragalysis-2/maxwin/BulkDock/TARGETS/Flavi_NS5_RdRp/aligned_files/z0892b/z0892b.pdb

>  <distance_score>  (2) 
None

>  <energy_score>  (2) 
None

>  <compound>  (2) 
OSKCNZZSIHVFTH-UHFFFAOYSA-N

>  <compound_id>  (2) 
128

>  <target>  (2) 
Flavi_NS5_RdRp

$$$$
