Zika_NS5A-x0136_A_1016_1_Zika_NS5A-x0136+A+1016+1
     RDKit          3D

 13 14  0  0  0  0  0  0  0  0999 V2000
  -21.2870  -60.4340   -0.0700 O   0  0  0  0  0  0  0  0  0  0  0  0
  -22.1730  -59.8700    0.5630 C   0  0  0  0  0  0  0  0  0  0  0  0
  -21.8690  -58.8890    1.6590 C   0  0  0  0  0  0  0  0  0  0  0  0
  -23.4890  -60.0640    0.3150 N   0  0  0  0  0  0  0  0  0  0  0  0
  -24.2900  -59.2690   -0.5350 C   0  0  0  0  0  0  0  0  0  0  0  0
  -25.1510  -59.8670   -1.4650 C   0  0  0  0  0  0  0  0  0  0  0  0
  -25.3400  -61.1920   -1.7840 N   0  0  0  0  0  0  0  0  0  0  0  0
  -26.2660  -61.2710   -2.7940 C   0  0  0  0  0  0  0  0  0  0  0  0
  -26.6860  -60.0290   -3.1410 C   0  0  0  0  0  0  0  0  0  0  0  0
  -25.9840  -59.0990   -2.3090 C   0  0  0  0  0  0  0  0  0  0  0  0
  -25.9310  -57.7080   -2.2100 C   0  0  0  0  0  0  0  0  0  0  0  0
  -25.0590  -57.1030   -1.3190 C   0  0  0  0  0  0  0  0  0  0  0  0
  -24.2530  -57.8700   -0.4890 C   0  0  0  0  0  0  0  0  0  0  0  0
  3  2  1  0
  2  1  2  0
  4  2  1  0
  5  4  1  0
  5 13  2  0
 13 12  1  0
 12 11  2  0
 11 10  1  0
 10  9  1  0
  9  8  2  0
  8  7  1  0
  7  6  1  0
  6  5  1  0
 10  6  2  0
M  END
>  <id>  (1) 
90

>  <inchikey>  (1) 
DCOHDTHCOCZQTO-UHFFFAOYSA-N

>  <alias>  (1) 
z0136b

>  <name>  (1) 
z0136b

>  <smiles>  (1) 
CC(=O)Nc1cccc2cc[nH]c12

>  <path>  (1) 
/opt/xchem-fragalysis-2/maxwin/BulkDock/TARGETS/Flavi_NS5_RdRp/aligned_files/z0136b/z0136b.pdb

>  <distance_score>  (1) 
None

>  <energy_score>  (1) 
None

>  <compound>  (1) 
DCOHDTHCOCZQTO-UHFFFAOYSA-N

>  <compound_id>  (1) 
73

>  <target>  (1) 
Flavi_NS5_RdRp

$$$$
None
     RDKit          3D

  9  9  0  0  0  0  0  0  0  0999 V2000
  -26.1530  -62.2180   -3.3860 Br  0  0  0  0  0  0  0  0  0  0  0  0
  -25.5440  -61.0300   -2.0830 C   0  0  0  0  0  0  0  0  0  0  0  0
  -25.4190  -59.6550   -2.1810 C   0  0  0  0  0  0  0  0  0  0  0  0
  -24.8590  -59.1600   -1.0920 N   0  0  0  0  0  0  0  0  0  0  0  0
  -24.6370  -60.2380   -0.3010 N   0  0  0  0  0  0  0  0  0  0  0  0
  -25.0590  -61.3710   -0.8640 C   0  0  0  0  0  0  0  0  0  0  0  0
  -23.9540  -60.1020    0.9830 C   0  0  0  0  0  0  0  0  0  0  0  0
  -22.7630  -59.1600    0.9410 C   0  0  0  0  0  0  0  0  0  0  0  0
  -21.6660  -59.7420    0.2370 O   0  0  0  0  0  0  0  0  0  0  0  0
  2  1  1  0
  2  6  2  0
  6  5  1  0
  7  5  1  0
  8  7  1  0
  9  8  1  0
  5  4  1  0
  4  3  2  0
  3  2  1  0
M  END
>  <id>  (2) 
163

>  <inchikey>  (2) 
REUWXYIZJBMWPB-UHFFFAOYSA-N

>  <alias>  (2) 
z0767a

>  <name>  (2) 
z0767a

>  <smiles>  (2) 
OCCn1cc(Br)cn1

>  <path>  (2) 
/opt/xchem-fragalysis-2/maxwin/BulkDock/TARGETS/Flavi_NS5_RdRp/aligned_files/z0767a/z0767a.pdb

>  <distance_score>  (2) 
None

>  <energy_score>  (2) 
None

>  <compound>  (2) 
REUWXYIZJBMWPB-UHFFFAOYSA-N

>  <compound_id>  (2) 
122

>  <target>  (2) 
Flavi_NS5_RdRp

$$$$
None
     RDKit          3D

 15 16  0  0  0  0  0  0  0  0999 V2000
  -26.1990  -62.1730   -3.2400 C   0  0  0  0  0  0  0  0  0  0  0  0
  -27.0820  -61.0520   -2.8510 C   0  0  0  0  0  0  0  0  0  0  0  0
  -26.3400  -59.7710   -2.5430 C   0  0  0  0  0  0  0  0  0  0  0  0
  -25.5160  -59.6510   -1.4330 C   0  0  0  0  0  0  0  0  0  0  0  0
  -24.8310  -58.4800   -1.1760 C   0  0  0  0  0  0  0  0  0  0  0  0
  -24.9810  -57.3860   -2.0200 C   0  0  0  0  0  0  0  0  0  0  0  0
  -25.7960  -57.5010   -3.1310 C   0  0  0  0  0  0  0  0  0  0  0  0
  -26.4660  -58.6790   -3.3850 C   0  0  0  0  0  0  0  0  0  0  0  0
  -24.3690  -56.1670   -1.7280 N   0  0  0  0  0  0  0  0  0  0  0  0
  -24.5600  -54.9020   -1.4220 C   0  0  0  0  0  0  0  0  0  0  0  0
  -26.2870  -54.9080   -1.1040 S   0  0  0  0  0  0  0  0  0  0  0  0
  -26.5770  -53.2010   -0.6610 C   0  0  0  0  0  0  0  0  0  0  0  0
  -25.5120  -52.2440   -1.1560 C   0  0  0  0  0  0  0  0  0  0  0  0
  -24.0700  -52.6250   -0.9480 C   0  0  0  0  0  0  0  0  0  0  0  0
  -23.6960  -53.9840   -1.3440 N   0  0  0  0  0  0  0  0  0  0  0  0
  2  1  1  0
  3  2  1  0
  3  8  2  0
  8  7  1  0
  7  6  2  0
  9  6  1  0
 10  9  1  0
 10 15  2  0
 15 14  1  0
 14 13  1  0
 13 12  1  0
 12 11  1  0
 11 10  1  0
  6  5  1  0
  5  4  2  0
  4  3  1  0
M  END
>  <id>  (3) 
174

>  <inchikey>  (3) 
OSKCNZZSIHVFTH-UHFFFAOYSA-N

>  <alias>  (3) 
z0892b

>  <name>  (3) 
z0892b

>  <smiles>  (3) 
CCc1ccc(NC2=NCCCS2)cc1

>  <path>  (3) 
/opt/xchem-fragalysis-2/maxwin/BulkDock/TARGETS/Flavi_NS5_RdRp/aligned_files/z0892b/z0892b.pdb

>  <distance_score>  (3) 
None

>  <energy_score>  (3) 
None

>  <compound>  (3) 
OSKCNZZSIHVFTH-UHFFFAOYSA-N

>  <compound_id>  (3) 
128

>  <target>  (3) 
Flavi_NS5_RdRp

$$$$
Zika_NS5A-x0968_A_1202_1_Zika_NS5A-x0136+A+1016+1
     RDKit          3D

 13 14  0  0  0  0  0  0  0  0999 V2000
  -26.4380  -55.4420    0.0320 O   0  0  0  0  0  0  0  0  0  0  0  0
  -26.3580  -56.6410   -0.6090 C   0  0  0  0  0  0  0  0  0  0  0  0
  -27.3520  -57.0980   -1.4450 C   0  0  0  0  0  0  0  0  0  0  0  0
  -27.2670  -58.2670   -2.0880 N   0  0  0  0  0  0  0  0  0  0  0  0
  -26.1510  -58.9760   -1.8780 C   0  0  0  0  0  0  0  0  0  0  0  0
  -25.1330  -58.6160   -1.0890 N   0  0  0  0  0  0  0  0  0  0  0  0
  -25.2560  -57.4460   -0.4620 C   0  0  0  0  0  0  0  0  0  0  0  0
  -26.0280  -60.2730   -2.5850 C   0  0  0  0  0  0  0  0  0  0  0  0
  -24.9140  -61.0840   -2.3880 C   0  0  0  0  0  0  0  0  0  0  0  0
  -24.8180  -62.3140   -3.0150 C   0  0  0  0  0  0  0  0  0  0  0  0
  -25.8240  -62.7500   -3.8450 C   0  0  0  0  0  0  0  0  0  0  0  0
  -26.9260  -61.9540   -4.0590 C   0  0  0  0  0  0  0  0  0  0  0  0
  -27.0310  -60.7210   -3.4370 C   0  0  0  0  0  0  0  0  0  0  0  0
  2  1  1  0
  2  7  2  0
  7  6  1  0
  6  5  2  0
  5  4  1  0
  4  3  2  0
  3  2  1  0
  8  5  1  0
  8 13  2  0
 13 12  1  0
 12 11  2  0
 11 10  1  0
 10  9  2  0
  9  8  1  0
M  END
>  <id>  (4) 
197

>  <inchikey>  (4) 
VXOJYMHSOARYSV-UHFFFAOYSA-N

>  <alias>  (4) 
z0968a

>  <name>  (4) 
z0968a

>  <smiles>  (4) 
Oc1cnc(-c2ccccc2)nc1

>  <path>  (4) 
/opt/xchem-fragalysis-2/maxwin/BulkDock/TARGETS/Flavi_NS5_RdRp/aligned_files/z0968a/z0968a.pdb

>  <distance_score>  (4) 
None

>  <energy_score>  (4) 
None

>  <compound>  (4) 
VXOJYMHSOARYSV-UHFFFAOYSA-N

>  <compound_id>  (4) 
137

>  <target>  (4) 
Flavi_NS5_RdRp

$$$$
