z1018a
     RDKit          3D

 18 19  0  0  0  0  0  0  0  0999 V2000
  -24.6370  -32.9720  -24.2020 O   0  0  0  0  0  0  0  0  0  0  0  0
  -23.4380  -33.0890  -24.0000 C   0  0  0  0  0  0  0  0  0  0  0  0
  -22.4420  -33.7780  -24.8910 C   0  0  0  0  0  0  0  0  0  0  0  0
  -21.0850  -33.4100  -24.3100 C   0  0  0  0  0  0  0  0  0  0  0  0
  -21.3630  -32.9570  -22.8880 C   0  0  0  0  0  0  0  0  0  0  0  0
  -22.7850  -32.6050  -22.9240 N   0  0  0  0  0  0  0  0  0  0  0  0
  -23.4200  -31.7770  -21.8880 C   0  0  0  0  0  0  0  0  0  0  0  0
  -24.3470  -32.5530  -20.9610 C   0  0  0  0  0  0  0  0  0  0  0  0
  -25.4880  -31.7690  -20.4960 N   0  0  0  0  0  0  0  0  0  0  0  0
  -26.3340  -31.1610  -21.3620 C   0  0  0  0  0  0  0  0  0  0  0  0
  -26.1830  -31.2570  -22.5750 O   0  0  0  0  0  0  0  0  0  0  0  0
  -27.3860  -30.4590  -20.8200 N   0  0  0  0  0  0  0  0  0  0  0  0
  -27.8020  -30.2930  -19.4750 C   0  0  0  0  0  0  0  0  0  0  0  0
  -26.9510  -30.0480  -18.4030 C   0  0  0  0  0  0  0  0  0  0  0  0
  -27.4770  -29.8290  -17.1390 C   0  0  0  0  0  0  0  0  0  0  0  0
  -28.8380  -29.8380  -16.9390 C   0  0  0  0  0  0  0  0  0  0  0  0
  -29.6850  -30.0770  -17.9990 C   0  0  0  0  0  0  0  0  0  0  0  0
  -29.1740  -30.3100  -19.2640 C   0  0  0  0  0  0  0  0  0  0  0  0
 11 10  2  0
 10  9  1  0
  9  8  1  0
  8  7  1  0
  7  6  1  0
  6  5  1  0
  5  4  1  0
  4  3  1  0
  3  2  1  0
  6  2  1  0
  2  1  2  0
 12 10  1  0
 13 12  1  0
 13 18  2  0
 18 17  1  0
 17 16  2  0
 16 15  1  0
 15 14  2  0
 14 13  1  0
M  END
>  <id>  (1) 
206

>  <inchikey>  (1) 
OYRHWZOYGOUXNC-UHFFFAOYSA-N

>  <alias>  (1) 
z1018a

>  <smiles>  (1) 
O=C(NCCN1CCCC1=O)Nc1ccccc1

>  <path>  (1) 
/opt/xchem-fragalysis-2/maxwin/BulkDock/TARGETS/Flavi_NS5_RdRp/aligned_files/z1018a/z1018a.pdb

>  <distance_score>  (1) 
None

>  <energy_score>  (1) 
None

>  <compound>  (1) 
OYRHWZOYGOUXNC-UHFFFAOYSA-N

>  <compound_id>  (1) 
144

>  <target>  (1) 
Flavi_NS5_RdRp

$$$$
z1040a
     RDKit          3D

 12 13  0  0  0  0  0  0  0  0999 V2000
  -24.4130  -30.4810  -16.2440 C   0  0  0  0  0  0  0  0  0  0  0  0
  -25.0350  -30.4490  -17.5480 N   0  0  0  0  0  0  0  0  0  0  0  0
  -26.3820  -30.3770  -17.7220 C   0  0  0  0  0  0  0  0  0  0  0  0
  -26.7710  -30.2300  -18.9810 N   0  0  0  0  0  0  0  0  0  0  0  0
  -28.1160  -30.1920  -19.2360 C   0  0  0  0  0  0  0  0  0  0  0  0
  -29.0760  -30.3170  -18.2040 C   0  0  0  0  0  0  0  0  0  0  0  0
  -28.6080  -30.4480  -16.8770 C   0  0  0  0  0  0  0  0  0  0  0  0
  -27.2710  -30.4820  -16.6230 C   0  0  0  0  0  0  0  0  0  0  0  0
  -28.5520  -30.0240  -20.5700 C   0  0  0  0  0  0  0  0  0  0  0  0
  -29.8820  -30.0300  -20.8630 C   0  0  0  0  0  0  0  0  0  0  0  0
  -30.8250  -30.1900  -19.8590 C   0  0  0  0  0  0  0  0  0  0  0  0
  -30.4410  -30.3200  -18.5540 C   0  0  0  0  0  0  0  0  0  0  0  0
  2  1  1  0
  3  2  1  0
  3  8  2  0
  8  7  1  0
  7  6  2  0
  6 12  1  0
 12 11  2  0
 11 10  1  0
 10  9  2  0
  9  5  1  0
  6  5  1  0
  5  4  2  0
  4  3  1  0
M  END
>  <id>  (2) 
208

>  <inchikey>  (2) 
POVSMFKXVSNGSU-UHFFFAOYSA-N

>  <alias>  (2) 
z1040a

>  <smiles>  (2) 
CNc1ccc2ccccc2n1

>  <path>  (2) 
/opt/xchem-fragalysis-2/maxwin/BulkDock/TARGETS/Flavi_NS5_RdRp/aligned_files/z1040a/z1040a.pdb

>  <distance_score>  (2) 
None

>  <energy_score>  (2) 
None

>  <compound>  (2) 
POVSMFKXVSNGSU-UHFFFAOYSA-N

>  <compound_id>  (2) 
146

>  <target>  (2) 
Flavi_NS5_RdRp

$$$$
