z0211a
     RDKit          3D

 14 14  0  0  0  0  0  0  0  0999 V2000
  -26.1990  -31.1140  -22.7050 O   0  0  0  0  0  0  0  0  0  0  0  0
  -25.4400  -31.2080  -21.7450 C   0  0  0  0  0  0  0  0  0  0  0  0
  -24.1640  -31.6450  -21.8600 N   0  0  0  0  0  0  0  0  0  0  0  0
  -23.5970  -32.0810  -23.1290 C   0  0  0  0  0  0  0  0  0  0  0  0
  -22.0380  -31.9840  -23.0990 C   0  0  1  0  0  0  0  0  0  0  0  0
  -21.5440  -31.8850  -21.7560 O   0  0  0  0  0  0  0  0  0  0  0  0
  -21.3930  -33.1630  -23.7940 C   0  0  0  0  0  0  0  0  0  0  0  0
  -25.7870  -30.8530  -20.4680 N   0  0  0  0  0  0  0  0  0  0  0  0
  -27.0380  -30.3840  -20.0010 C   0  0  0  0  0  0  0  0  0  0  0  0
  -27.1570  -30.1750  -18.6330 C   0  0  0  0  0  0  0  0  0  0  0  0
  -28.3980  -29.9090  -18.0800 C   0  0  0  0  0  0  0  0  0  0  0  0
  -29.5160  -29.8390  -18.8790 C   0  0  0  0  0  0  0  0  0  0  0  0
  -29.3970  -30.0030  -20.2420 C   0  0  0  0  0  0  0  0  0  0  0  0
  -28.1630  -30.2660  -20.8110 C   0  0  0  0  0  0  0  0  0  0  0  0
  5  7  1  1
  6  5  1  0
  5  4  1  0
  4  3  1  0
  3  2  1  0
  2  1  2  0
  8  2  1  0
  9  8  1  0
  9 14  2  0
 14 13  1  0
 13 12  2  0
 12 11  1  0
 11 10  2  0
 10  9  1  0
M  END
>  <id>  (1) 
102

>  <inchikey>  (1) 
XEAXHIGGZMUNSO-QMMMGPOBSA-N

>  <alias>  (1) 
z0211a

>  <smiles>  (1) 
C[C@H](O)CNC(=O)Nc1ccccc1

>  <path>  (1) 
/opt/xchem-fragalysis-2/maxwin/BulkDock/TARGETS/Flavi_NS5_RdRp/aligned_files/z0211a/z0211a.pdb

>  <distance_score>  (1) 
None

>  <energy_score>  (1) 
None

>  <compound>  (1) 
XEAXHIGGZMUNSO-UHFFFAOYSA-N

>  <compound_id>  (1) 
81

>  <target>  (1) 
Flavi_NS5_RdRp

$$$$
z0653a
     RDKit          3D

 13 14  0  0  0  0  0  0  0  0999 V2000
  -24.1490  -31.8770  -18.9320 O   0  0  0  0  0  0  0  0  0  0  0  0
  -25.5230  -31.9770  -19.3000 C   0  0  0  0  0  0  0  0  0  0  0  0
  -25.8440  -30.9390  -20.3670 C   0  0  1  0  0  0  0  0  0  0  0  0
  -26.3600  -31.5780  -21.6530 C   0  0  0  0  0  0  0  0  0  0  0  0
  -26.7580  -30.3950  -22.4550 C   0  0  0  0  0  0  0  0  0  0  0  0
  -27.5210  -29.5230  -21.4840 C   0  0  0  0  0  0  0  0  0  0  0  0
  -26.9070  -29.8150  -20.0970 C   0  0  1  0  0  0  0  0  0  0  0  0
  -27.9250  -30.2220  -19.0740 C   0  0  0  0  0  0  0  0  0  0  0  0
  -29.0920  -30.9680  -19.2680 C   0  0  0  0  0  0  0  0  0  0  0  0
  -29.7210  -31.2050  -18.1370 N   0  0  0  0  0  0  0  0  0  0  0  0
  -28.9580  -30.6050  -17.1970 N   0  0  0  0  0  0  0  0  0  0  0  0
  -29.3110  -30.7140  -15.7880 C   0  0  0  0  0  0  0  0  0  0  0  0
  -27.8870  -29.9990  -17.7240 C   0  0  0  0  0  0  0  0  0  0  0  0
  2  1  1  0
  3  2  1  1
  3  7  1  0
  7  8  1  1
  8 13  2  0
 13 11  1  0
 12 11  1  0
 11 10  1  0
 10  9  2  0
  9  8  1  0
  7  6  1  0
  6  5  1  0
  5  4  1  0
  4  3  1  0
M  END
>  <id>  (2) 
153

>  <inchikey>  (2) 
FTZBADNQLNPVCE-PSASIEDQSA-N

>  <alias>  (2) 
z0653a

>  <smiles>  (2) 
Cn1cc([C@@H]2CCC[C@@H]2CO)cn1

>  <path>  (2) 
/opt/xchem-fragalysis-2/maxwin/BulkDock/TARGETS/Flavi_NS5_RdRp/aligned_files/z0653a/z0653a.pdb

>  <distance_score>  (2) 
None

>  <energy_score>  (2) 
None

>  <compound>  (2) 
FTZBADNQLNPVCE-UHFFFAOYSA-N

>  <compound_id>  (2) 
115

>  <target>  (2) 
Flavi_NS5_RdRp

$$$$
