d0615b
     RDKit          3D

 15 16  0  0  0  0  0  0  0  0999 V2000
  -18.6710  -43.8090  -24.6670 F   0  0  0  0  0  0  0  0  0  0  0  0
  -17.5250  -43.3270  -24.1160 C   0  0  0  0  0  0  0  0  0  0  0  0
  -17.1250  -43.7850  -22.8860 C   0  0  0  0  0  0  0  0  0  0  0  0
  -16.0090  -43.3300  -22.3050 N   0  0  0  0  0  0  0  0  0  0  0  0
  -15.2990  -42.3990  -22.9570 C   0  0  0  0  0  0  0  0  0  0  0  0
  -16.8090  -42.3840  -24.8030 C   0  0  0  0  0  0  0  0  0  0  0  0
  -15.6590  -41.8830  -24.2030 C   0  0  0  0  0  0  0  0  0  0  0  0
  -14.9140  -40.8750  -24.7970 N   0  0  0  0  0  0  0  0  0  0  0  0
  -15.2780  -40.2110  -26.0360 C   0  0  0  0  0  0  0  0  0  0  0  0
  -16.3830  -39.2140  -25.8960 C   0  0  0  0  0  0  0  0  0  0  0  0
  -17.3690  -38.9300  -26.7710 C   0  0  0  0  0  0  0  0  0  0  0  0
  -18.2750  -37.9550  -26.4070 N   0  0  0  0  0  0  0  0  0  0  0  0
  -16.5660  -38.2060  -24.4990 S   0  0  0  0  0  0  0  0  0  0  0  0
  -17.9680  -37.4870  -25.2330 C   0  0  0  0  0  0  0  0  0  0  0  0
  -18.7400  -36.4070  -24.5480 C   0  0  0  0  0  0  0  0  0  0  0  0
 15 14  1  0
 14 12  2  0
 12 11  1  0
 11 10  2  0
 10  9  1  0
  9  8  1  0
  8  7  1  0
  7  5  1  0
  5  4  2  0
  4  3  1  0
  3  2  2  0
  2  1  1  0
  6  2  1  0
  7  6  2  0
 13 10  1  0
 14 13  1  0
M  END
>  <id>  (1) 
51

>  <inchikey>  (1) 
SSOIKBIBPGCZFT-UHFFFAOYSA-N

>  <alias>  (1) 
d0615b

>  <smiles>  (1) 
Cc1ncc(CNc2cncc(F)c2)s1

>  <path>  (1) 
/opt/xchem-fragalysis-2/maxwin/BulkDock/TARGETS/Flavi_NS5_RdRp/aligned_files/d0615b/d0615b.pdb

>  <distance_score>  (1) 
None

>  <energy_score>  (1) 
None

>  <compound>  (1) 
SSOIKBIBPGCZFT-UHFFFAOYSA-N

>  <compound_id>  (1) 
43

>  <target>  (1) 
Flavi_NS5_RdRp

$$$$
6ld2-a
     RDKit          3D

 18 19  0  0  0  0  0  0  0  0999 V2000
  -15.0030  -46.0180  -19.8700 C   0  0  0  0  0  0  0  0  0  0  0  0
  -13.8170  -45.6220  -19.2040 C   0  0  1  0  0  0  0  0  0  0  0  0
  -13.3690  -44.3780  -19.6850 C   0  0  2  0  0  0  0  0  0  0  0  0
  -13.3540  -44.3490  -21.0970 C   0  0  0  0  0  0  0  0  0  0  0  0
  -14.0460  -45.3030  -21.8830 C   0  0  1  0  0  0  0  0  0  0  0  0
  -14.9470  -46.2450  -21.2790 C   0  0  2  0  0  0  0  0  0  0  0  0
  -13.8260  -43.9370  -23.9110 C   0  0  0  0  0  0  0  0  0  0  0  0
  -11.4990  -42.7280  -19.5460 C   0  0  0  0  0  0  0  0  0  0  0  0
  -13.9030  -45.6700  -17.7890 C   0  0  0  0  0  0  0  0  0  0  0  0
  -16.1710  -46.6580  -21.7360 C   0  0  0  0  0  0  0  0  0  0  0  0
  -16.7080  -47.8450  -21.3290 C   0  0  0  0  0  0  0  0  0  0  0  0
  -17.8440  -48.1970  -21.9510 C   0  0  0  0  0  0  0  0  0  0  0  0
  -18.2650  -47.3550  -22.8880 C   0  0  0  0  0  0  0  0  0  0  0  0
  -14.6160  -44.7470  -23.0230 O   0  0  0  0  0  0  0  0  0  0  0  0
  -12.1670  -43.9480  -19.1870 O   0  0  0  0  0  0  0  0  0  0  0  0
  -14.9990  -45.6910  -17.1860 O   0  0  0  0  0  0  0  0  0  0  0  0
  -12.8610  -45.6920  -17.0860 O   0  0  0  0  0  0  0  0  0  0  0  0
  -17.1960  -46.0470  -22.9630 S   0  0  0  0  0  0  0  0  0  0  0  0
  2  1  1  0
  3  2  1  0
  4  3  1  0
  5  4  1  0
  6  5  1  0
  6  1  1  0
  2  9  1  1
  6 10  1  6
 11 10  2  0
 12 11  1  0
 13 12  2  0
 14  7  1  0
  5 14  1  6
  3 15  1  1
 15  8  1  0
 16  9  2  0
 17  9  1  0
 18 13  1  0
 18 10  1  0
M  END
>  <id>  (2) 
177665

>  <inchikey>  (2) 
RFIIEINMNPNZEZ-RCWTZXSCSA-N

>  <alias>  (2) 
6ld2-a

>  <smiles>  (2) 
CO[C@H]1C[C@H](OC)[C@H](c2cccs2)C[C@@H]1C(=O)O

>  <path>  (2) 
/opt/xchem-fragalysis-2/maxwin/RdRp_FFF/Flavi_NS5_RdRp_6ld2/aligned_files/6ld2-a/6ld2-a.pdb

>  <distance_score>  (2) 
None

>  <energy_score>  (2) 
None

>  <compound>  (2) 
RFIIEINMNPNZEZ-UHFFFAOYSA-N

>  <compound_id>  (2) 
69378

>  <target>  (2) 
Flavi_NS5_RdRp

$$$$
