6izx-a
     RDKit          3D

 14 15  0  0  0  0  0  0  0  0999 V2000
  -15.7510  -43.8290  -22.4670 C   0  0  0  0  0  0  0  0  0  0  0  0
  -15.8490  -42.0870  -24.3960 C   0  0  0  0  0  0  0  0  0  0  0  0
  -18.2930  -38.5390  -26.6440 C   0  0  0  0  0  0  0  0  0  0  0  0
  -17.1520  -39.4290  -27.1950 C   0  0  0  0  0  0  0  0  0  0  0  0
  -15.4490  -40.0890  -25.6840 C   0  0  0  0  0  0  0  0  0  0  0  0
  -14.3320  -39.7530  -24.8350 C   0  0  0  0  0  0  0  0  0  0  0  0
  -13.9800  -40.5950  -23.7550 C   0  0  0  0  0  0  0  0  0  0  0  0
  -14.7050  -41.7520  -23.5260 C   0  0  0  0  0  0  0  0  0  0  0  0
  -16.1890  -41.2640  -25.4380 C   0  0  0  0  0  0  0  0  0  0  0  0
  -17.3790  -40.2730  -28.0120 O   0  0  0  0  0  0  0  0  0  0  0  0
  -15.8210  -39.2640  -26.7530 O   0  0  0  0  0  0  0  0  0  0  0  0
  -14.5710  -42.9320  -22.3710 O   0  0  0  0  0  0  0  0  0  0  0  0
  -16.0720  -44.6540  -21.6670 O   0  0  0  0  0  0  0  0  0  0  0  0
  -16.5130  -43.4770  -23.8710 S   0  0  0  0  0  0  0  0  0  0  0  0
 12  8  1  0
 12  1  1  0
  7  8  1  0
  7  6  2  0
 13  1  2  0
  8  2  2  0
  1 14  1  0
  6  5  1  0
  2 14  1  0
  2  9  1  0
  5  9  2  0
  5 11  1  0
 11  4  1  0
  4 10  2  0
  4  3  1  0
M  END
>  <id>  (1) 
220

>  <inchikey>  (1) 
GBLGMSCMLNOGSY-UHFFFAOYSA-N

>  <alias>  (1) 
6izx-a

>  <smiles>  (1) 
CC(=O)Oc1ccc2oc(=O)sc2c1

>  <path>  (1) 
/opt/xchem-fragalysis-2/maxwin/BulkDock/TARGETS/Flavi_NS5_RdRp/aligned_files/6izx-a/6izx-a.pdb

>  <distance_score>  (1) 
None

>  <energy_score>  (1) 
None

>  <compound>  (1) 
GBLGMSCMLNOGSY-UHFFFAOYSA-N

>  <compound_id>  (1) 
155

>  <target>  (1) 
Flavi_NS5_RdRp

$$$$
6ld2-a
     RDKit          3D

 18 19  0  0  0  0  0  0  0  0999 V2000
  -15.0030  -46.0180  -19.8700 C   0  0  0  0  0  0  0  0  0  0  0  0
  -13.8170  -45.6220  -19.2040 C   0  0  1  0  0  0  0  0  0  0  0  0
  -13.3690  -44.3780  -19.6850 C   0  0  2  0  0  0  0  0  0  0  0  0
  -13.3540  -44.3490  -21.0970 C   0  0  0  0  0  0  0  0  0  0  0  0
  -14.0460  -45.3030  -21.8830 C   0  0  1  0  0  0  0  0  0  0  0  0
  -14.9470  -46.2450  -21.2790 C   0  0  2  0  0  0  0  0  0  0  0  0
  -13.8260  -43.9370  -23.9110 C   0  0  0  0  0  0  0  0  0  0  0  0
  -11.4990  -42.7280  -19.5460 C   0  0  0  0  0  0  0  0  0  0  0  0
  -13.9030  -45.6700  -17.7890 C   0  0  0  0  0  0  0  0  0  0  0  0
  -16.1710  -46.6580  -21.7360 C   0  0  0  0  0  0  0  0  0  0  0  0
  -16.7080  -47.8450  -21.3290 C   0  0  0  0  0  0  0  0  0  0  0  0
  -17.8440  -48.1970  -21.9510 C   0  0  0  0  0  0  0  0  0  0  0  0
  -18.2650  -47.3550  -22.8880 C   0  0  0  0  0  0  0  0  0  0  0  0
  -14.6160  -44.7470  -23.0230 O   0  0  0  0  0  0  0  0  0  0  0  0
  -12.1670  -43.9480  -19.1870 O   0  0  0  0  0  0  0  0  0  0  0  0
  -14.9990  -45.6910  -17.1860 O   0  0  0  0  0  0  0  0  0  0  0  0
  -12.8610  -45.6920  -17.0860 O   0  0  0  0  0  0  0  0  0  0  0  0
  -17.1960  -46.0470  -22.9630 S   0  0  0  0  0  0  0  0  0  0  0  0
  2  1  1  0
  3  2  1  0
  4  3  1  0
  5  4  1  0
  6  5  1  0
  6  1  1  0
  2  9  1  1
  6 10  1  6
 11 10  2  0
 12 11  1  0
 13 12  2  0
 14  7  1  0
  5 14  1  6
  3 15  1  1
 15  8  1  0
 16  9  2  0
 17  9  1  0
 18 13  1  0
 18 10  1  0
M  END
>  <id>  (2) 
177665

>  <inchikey>  (2) 
RFIIEINMNPNZEZ-RCWTZXSCSA-N

>  <alias>  (2) 
6ld2-a

>  <smiles>  (2) 
CO[C@H]1C[C@H](OC)[C@H](c2cccs2)C[C@@H]1C(=O)O

>  <path>  (2) 
/opt/xchem-fragalysis-2/maxwin/RdRp_FFF/Flavi_NS5_RdRp_6ld2/aligned_files/6ld2-a/6ld2-a.pdb

>  <distance_score>  (2) 
None

>  <energy_score>  (2) 
None

>  <compound>  (2) 
RFIIEINMNPNZEZ-UHFFFAOYSA-N

>  <compound_id>  (2) 
69378

>  <target>  (2) 
Flavi_NS5_RdRp

$$$$
