z0211a
     RDKit          3D

 14 14  0  0  0  0  0  0  0  0999 V2000
  -26.1990  -31.1140  -22.7050 O   0  0  0  0  0  0  0  0  0  0  0  0
  -25.4400  -31.2080  -21.7450 C   0  0  0  0  0  0  0  0  0  0  0  0
  -24.1640  -31.6450  -21.8600 N   0  0  0  0  0  0  0  0  0  0  0  0
  -23.5970  -32.0810  -23.1290 C   0  0  0  0  0  0  0  0  0  0  0  0
  -22.0380  -31.9840  -23.0990 C   0  0  1  0  0  0  0  0  0  0  0  0
  -21.5440  -31.8850  -21.7560 O   0  0  0  0  0  0  0  0  0  0  0  0
  -21.3930  -33.1630  -23.7940 C   0  0  0  0  0  0  0  0  0  0  0  0
  -25.7870  -30.8530  -20.4680 N   0  0  0  0  0  0  0  0  0  0  0  0
  -27.0380  -30.3840  -20.0010 C   0  0  0  0  0  0  0  0  0  0  0  0
  -27.1570  -30.1750  -18.6330 C   0  0  0  0  0  0  0  0  0  0  0  0
  -28.3980  -29.9090  -18.0800 C   0  0  0  0  0  0  0  0  0  0  0  0
  -29.5160  -29.8390  -18.8790 C   0  0  0  0  0  0  0  0  0  0  0  0
  -29.3970  -30.0030  -20.2420 C   0  0  0  0  0  0  0  0  0  0  0  0
  -28.1630  -30.2660  -20.8110 C   0  0  0  0  0  0  0  0  0  0  0  0
  5  7  1  1
  6  5  1  0
  5  4  1  0
  4  3  1  0
  3  2  1  0
  2  1  2  0
  8  2  1  0
  9  8  1  0
  9 14  2  0
 14 13  1  0
 13 12  2  0
 12 11  1  0
 11 10  2  0
 10  9  1  0
M  END
>  <id>  (1) 
102

>  <inchikey>  (1) 
XEAXHIGGZMUNSO-QMMMGPOBSA-N

>  <alias>  (1) 
z0211a

>  <smiles>  (1) 
C[C@H](O)CNC(=O)Nc1ccccc1

>  <path>  (1) 
/opt/xchem-fragalysis-2/maxwin/BulkDock/TARGETS/Flavi_NS5_RdRp/aligned_files/z0211a/z0211a.pdb

>  <distance_score>  (1) 
None

>  <energy_score>  (1) 
None

>  <compound>  (1) 
XEAXHIGGZMUNSO-UHFFFAOYSA-N

>  <compound_id>  (1) 
81

>  <target>  (1) 
Flavi_NS5_RdRp

$$$$
z0991a
     RDKit          3D

 15 16  0  0  0  0  0  0  0  0999 V2000
  -25.1300  -27.1920  -21.9810 O   0  0  0  0  0  0  0  0  0  0  0  0
  -25.0680  -27.3340  -20.5600 S   0  0  0  0  0  0  0  0  0  0  0  0
  -25.6810  -26.3350  -19.7380 O   0  0  0  0  0  0  0  0  0  0  0  0
  -23.3870  -27.4480  -20.0860 C   0  0  0  0  0  0  0  0  0  0  0  0
  -25.7790  -28.7650  -20.2170 N   0  0  0  0  0  0  0  0  0  0  0  0
  -27.2410  -28.9130  -20.0120 C   0  0  2  0  0  0  0  0  0  0  0  0
  -27.6070  -29.4620  -18.6480 C   0  0  0  0  0  0  0  0  0  0  0  0
  -26.7130  -29.4760  -17.5790 C   0  0  0  0  0  0  0  0  0  0  0  0
  -27.1430  -29.8130  -16.3030 C   0  0  0  0  0  0  0  0  0  0  0  0
  -28.4660  -30.1340  -16.0810 C   0  0  0  0  0  0  0  0  0  0  0  0
  -29.3650  -30.1580  -17.1360 C   0  0  0  0  0  0  0  0  0  0  0  0
  -28.9170  -29.8490  -18.4090 C   0  0  0  0  0  0  0  0  0  0  0  0
  -29.7930  -30.0150  -19.4470 O   0  0  0  0  0  0  0  0  0  0  0  0
  -29.1330  -30.4950  -20.6480 C   0  0  0  0  0  0  0  0  0  0  0  0
  -27.9280  -29.7000  -21.1250 C   0  0  0  0  0  0  0  0  0  0  0  0
  4  2  1  0
  3  2  2  0
  2  1  2  0
  5  2  1  0
  6  5  1  6
  6 15  1  0
 15 14  1  0
 14 13  1  0
 13 12  1  0
 12 11  2  0
 11 10  1  0
 10  9  2  0
  9  8  1  0
  8  7  2  0
  7  6  1  0
 12  7  1  0
M  END
>  <id>  (2) 
200

>  <inchikey>  (2) 
GLQMCOZZWSNYPN-VIFPVBQESA-N

>  <alias>  (2) 
z0991a

>  <smiles>  (2) 
CS(=O)(=O)N[C@H]1CCOc2ccccc21

>  <path>  (2) 
/opt/xchem-fragalysis-2/maxwin/BulkDock/TARGETS/Flavi_NS5_RdRp/aligned_files/z0991a/z0991a.pdb

>  <distance_score>  (2) 
None

>  <energy_score>  (2) 
None

>  <compound>  (2) 
GLQMCOZZWSNYPN-UHFFFAOYSA-N

>  <compound_id>  (2) 
139

>  <target>  (2) 
Flavi_NS5_RdRp

$$$$
