z0521a
     RDKit          3D

 15 16  0  0  0  0  0  0  0  0999 V2000
  -23.6500  -32.2510  -21.0470 C   0  0  0  0  0  0  0  0  0  0  0  0
  -24.9600  -31.6670  -20.6230 C   0  0  0  0  0  0  0  0  0  0  0  0
  -25.2400  -31.5020  -19.2520 C   0  0  0  0  0  0  0  0  0  0  0  0
  -25.7790  -31.2700  -21.5910 N   0  0  0  0  0  0  0  0  0  0  0  0
  -26.9060  -30.6550  -21.1980 C   0  0  0  0  0  0  0  0  0  0  0  0
  -27.2160  -30.4560  -19.8740 N   0  0  0  0  0  0  0  0  0  0  0  0
  -28.4100  -29.7860  -19.7700 N   0  0  0  0  0  0  0  0  0  0  0  0
  -28.7230  -29.6260  -21.0370 C   0  0  0  0  0  0  0  0  0  0  0  0
  -27.8600  -30.1260  -21.9580 N   0  0  0  0  0  0  0  0  0  0  0  0
  -26.4000  -30.8680  -18.8430 C   0  0  0  0  0  0  0  0  0  0  0  0
  -26.7210  -30.6310  -17.5040 N   0  0  0  0  0  0  0  0  0  0  0  0
  -25.6540  -30.7520  -16.4980 C   0  0  0  0  0  0  0  0  0  0  0  0
  -24.5430  -29.7450  -16.7020 C   0  0  0  0  0  0  0  0  0  0  0  0
  -27.8750  -29.8010  -17.1030 C   0  0  0  0  0  0  0  0  0  0  0  0
  -29.1800  -30.5550  -17.1140 C   0  0  0  0  0  0  0  0  0  0  0  0
 15 14  1  0
 14 11  1  0
 12 11  1  0
 13 12  1  0
 11 10  1  0
 10  3  2  0
  3  2  1  0
  2  1  1  0
  4  2  2  0
  5  4  1  0
  5  9  2  0
  9  8  1  0
  8  7  2  0
  7  6  1  0
 10  6  1  0
  6  5  1  0
M  END
>  <id>  (1) 
141

>  <inchikey>  (1) 
GSNOZLZNQMLSKJ-UHFFFAOYSA-N

>  <alias>  (1) 
z0521a

>  <smiles>  (1) 
CCN(CC)c1cc(C)nc2ncnn12

>  <path>  (1) 
/opt/xchem-fragalysis-2/maxwin/BulkDock/TARGETS/Flavi_NS5_RdRp/aligned_files/z0521a/z0521a.pdb

>  <distance_score>  (1) 
None

>  <energy_score>  (1) 
None

>  <compound>  (1) 
GSNOZLZNQMLSKJ-UHFFFAOYSA-N

>  <compound_id>  (1) 
107

>  <target>  (1) 
Flavi_NS5_RdRp

$$$$
3vws-a
     RDKit          3D

 24 26  0  0  0  0  0  0  0  0999 V2000
  -26.7260  -28.5030  -20.2290 Cl  0  0  0  0  0  0  0  0  0  0  0  0
  -26.3420  -30.1380  -19.6870 C   0  0  0  0  0  0  0  0  0  0  0  0
  -27.1730  -30.5900  -18.6680 C   0  0  0  0  0  0  0  0  0  0  0  0
  -26.9720  -31.8610  -18.1400 C   0  0  0  0  0  0  0  0  0  0  0  0
  -25.2990  -30.9420  -20.2270 C   0  0  0  0  0  0  0  0  0  0  0  0
  -25.1090  -32.2420  -19.6830 C   0  0  0  0  0  0  0  0  0  0  0  0
  -25.9680  -32.7080  -18.6110 C   0  0  0  0  0  0  0  0  0  0  0  0
  -25.8660  -34.1300  -17.8450 S   0  0  0  0  0  0  0  0  0  0  0  0
  -26.9300  -35.1090  -17.9600 O   0  0  0  0  0  0  0  0  0  0  0  0
  -25.1250  -34.9060  -18.8310 O   0  0  0  0  0  0  0  0  0  0  0  0
  -24.6750  -34.2200  -16.7840 N   0  0  0  0  0  0  0  0  0  0  0  0
  -23.4960  -33.5330  -16.6760 C   0  0  0  0  0  0  0  0  0  0  0  0
  -22.4850  -33.5910  -17.6800 C   0  0  0  0  0  0  0  0  0  0  0  0
  -21.2550  -32.9000  -17.4970 C   0  0  0  0  0  0  0  0  0  0  0  0
  -23.2770  -32.7760  -15.4720 C   0  0  0  0  0  0  0  0  0  0  0  0
  -22.0400  -32.0890  -15.2880 C   0  0  0  0  0  0  0  0  0  0  0  0
  -21.4420  -31.2650  -14.2800 C   0  0  0  0  0  0  0  0  0  0  0  0
  -22.1160  -30.8650  -12.9730 C   0  0  0  0  0  0  0  0  0  0  0  0
  -23.2530  -31.2820  -12.6450 O   0  0  0  0  0  0  0  0  0  0  0  0
  -21.5200  -30.0570  -12.2170 O   0  0  0  0  0  0  0  0  0  0  0  0
  -21.0530  -32.1600  -16.2940 C   0  0  0  0  0  0  0  0  0  0  0  0
  -19.9760  -31.4690  -15.9630 O   0  0  0  0  0  0  0  0  0  0  0  0
  -20.1540  -30.9040  -14.7170 C   0  0  0  0  0  0  0  0  0  0  0  0
  -19.0000  -30.0710  -14.1720 C   0  0  0  0  0  0  0  0  0  0  0  0
  9  8  2  0
 10  8  2  0
  8  7  1  0
  8 11  1  0
  7  4  2  0
  7  6  1  0
  4  3  1  0
  6  5  2  0
 11 12  1  0
  3  2  2  0
  5  2  1  0
  2  1  1  0
 12 13  2  0
 12 15  1  0
 13 14  1  0
 15 16  2  0
 14 21  2  0
 16 21  1  0
 16 17  1  0
 21 22  1  0
 19 18  2  0
 17 18  1  0
 17 23  2  0
 22 23  1  0
 18 20  1  0
 23 24  1  0
M  END
>  <id>  (2) 
218

>  <inchikey>  (2) 
UZVVWRBCUSWUON-UHFFFAOYSA-N

>  <alias>  (2) 
3vws-a

>  <smiles>  (2) 
Cc1oc2ccc(NS(=O)(=O)c3ccc(Cl)cc3)cc2c1C(=O)O

>  <path>  (2) 
/opt/xchem-fragalysis-2/maxwin/BulkDock/TARGETS/Flavi_NS5_RdRp/aligned_files/3vws-a/3vws-a.pdb

>  <distance_score>  (2) 
None

>  <energy_score>  (2) 
None

>  <compound>  (2) 
UZVVWRBCUSWUON-UHFFFAOYSA-N

>  <compound_id>  (2) 
154

>  <target>  (2) 
Flavi_NS5_RdRp

$$$$
