d0191a
     RDKit          3D

 12 13  0  0  0  0  0  0  0  0999 V2000
  -14.7240  -41.6290  -24.2740 C   0  0  0  0  0  0  0  0  0  0  0  0
  -15.1980  -42.8250  -23.8310 C   0  0  0  0  0  0  0  0  0  0  0  0
  -16.1900  -43.2470  -24.7330 C   0  0  0  0  0  0  0  0  0  0  0  0
  -16.2940  -42.2990  -25.7020 C   0  0  0  0  0  0  0  0  0  0  0  0
  -15.3980  -41.2940  -25.4230 N   0  0  0  0  0  0  0  0  0  0  0  0
  -15.2480  -40.0370  -26.1670 C   0  0  0  0  0  0  0  0  0  0  0  0
  -16.3550  -39.0540  -25.8750 C   0  0  0  0  0  0  0  0  0  0  0  0
  -17.4060  -38.8590  -26.7540 C   0  0  0  0  0  0  0  0  0  0  0  0
  -18.3830  -37.9610  -26.5720 N   0  0  0  0  0  0  0  0  0  0  0  0
  -18.3220  -37.2060  -25.4700 C   0  0  0  0  0  0  0  0  0  0  0  0
  -17.3280  -37.3290  -24.5260 C   0  0  0  0  0  0  0  0  0  0  0  0
  -16.3410  -38.2750  -24.7310 C   0  0  0  0  0  0  0  0  0  0  0  0
  7  6  1  0
  7 12  2  0
 12 11  1  0
 11 10  2  0
 10  9  1  0
  9  8  2  0
  8  7  1  0
  6  5  1  0
  5  4  1  0
  4  3  2  0
  3  2  1  0
  2  1  2  0
  5  1  1  0
M  END
>  <id>  (1) 
19

>  <inchikey>  (1) 
PJVWPGGKILHMKW-UHFFFAOYSA-N

>  <alias>  (1) 
d0191a

>  <smiles>  (1) 
c1cncc(Cn2cccc2)c1

>  <path>  (1) 
/opt/xchem-fragalysis-2/maxwin/BulkDock/TARGETS/Flavi_NS5_RdRp/aligned_files/d0191a/d0191a.pdb

>  <distance_score>  (1) 
None

>  <energy_score>  (1) 
None

>  <compound>  (1) 
PJVWPGGKILHMKW-UHFFFAOYSA-N

>  <compound_id>  (1) 
16

>  <target>  (1) 
Flavi_NS5_RdRp

$$$$
d0472a
     RDKit          3D

 12 13  0  0  0  0  0  0  0  0999 V2000
  -15.7750  -43.6370  -22.5880 N   0  0  0  0  0  0  0  0  0  0  0  0
  -15.1370  -44.0180  -21.4420 C   0  0  0  0  0  0  0  0  0  0  0  0
  -15.5660  -45.1350  -20.6910 C   0  0  0  0  0  0  0  0  0  0  0  0
  -15.0140  -45.4870  -19.5210 N   0  0  0  0  0  0  0  0  0  0  0  0
  -13.9920  -44.7430  -19.0650 C   0  0  0  0  0  0  0  0  0  0  0  0
  -13.4830  -43.6510  -19.7350 C   0  0  0  0  0  0  0  0  0  0  0  0
  -14.0650  -43.2880  -20.9320 C   0  0  0  0  0  0  0  0  0  0  0  0
  -16.5820  -46.0170  -21.1430 N   0  0  0  0  0  0  0  0  0  0  0  0
  -17.5610  -45.7280  -22.0730 C   0  0  0  0  0  0  0  0  0  0  0  0
  -18.3330  -46.8380  -22.2340 C   0  0  0  0  0  0  0  0  0  0  0  0
  -17.8230  -47.8430  -21.3830 C   0  0  0  0  0  0  0  0  0  0  0  0
  -16.7520  -47.3220  -20.7230 C   0  0  0  0  0  0  0  0  0  0  0  0
  2  1  1  0
  2  7  2  0
  7  6  1  0
  6  5  2  0
  5  4  1  0
  4  3  2  0
  3  2  1  0
  8  3  1  0
  8 12  1  0
 12 11  2  0
 11 10  1  0
 10  9  2  0
  9  8  1  0
M  END
>  <id>  (2) 
42

>  <inchikey>  (2) 
QCTDPVKLZRURRV-UHFFFAOYSA-N

>  <alias>  (2) 
d0472a

>  <smiles>  (2) 
Nc1cccnc1-n1cccc1

>  <path>  (2) 
/opt/xchem-fragalysis-2/maxwin/BulkDock/TARGETS/Flavi_NS5_RdRp/aligned_files/d0472a/d0472a.pdb

>  <distance_score>  (2) 
None

>  <energy_score>  (2) 
None

>  <compound>  (2) 
QCTDPVKLZRURRV-UHFFFAOYSA-N

>  <compound_id>  (2) 
35

>  <target>  (2) 
Flavi_NS5_RdRp

$$$$
