d0160a
     RDKit          3D

 12 13  0  0  0  0  0  0  0  0999 V2000
  -14.8680  -42.8470  -22.4170 C   0  0  0  0  0  0  0  0  0  0  0  0
  -14.3590  -41.4720  -22.7610 C   0  0  0  0  0  0  0  0  0  0  0  0
  -14.6310  -40.6870  -23.8930 C   0  0  0  0  0  0  0  0  0  0  0  0
  -13.9280  -39.5420  -23.7350 N   0  0  0  0  0  0  0  0  0  0  0  0
  -13.2130  -39.5230  -22.5740 N   0  0  0  0  0  0  0  0  0  0  0  0
  -13.4780  -40.6900  -21.9930 C   0  0  0  0  0  0  0  0  0  0  0  0
  -15.4880  -40.9120  -25.0760 C   0  0  0  0  0  0  0  0  0  0  0  0
  -16.4450  -41.9230  -25.0890 C   0  0  0  0  0  0  0  0  0  0  0  0
  -17.2400  -42.0720  -26.2090 C   0  0  0  0  0  0  0  0  0  0  0  0
  -17.1550  -41.2910  -27.2920 N   0  0  0  0  0  0  0  0  0  0  0  0
  -16.2280  -40.3270  -27.2660 C   0  0  0  0  0  0  0  0  0  0  0  0
  -15.3790  -40.1030  -26.1990 C   0  0  0  0  0  0  0  0  0  0  0  0
  2  1  1  0
  2  6  1  0
  6  5  2  0
  5  4  1  0
  4  3  1  0
  3  2  2  0
  7  3  1  0
  7 12  2  0
 12 11  1  0
 11 10  2  0
 10  9  1  0
  9  8  2  0
  8  7  1  0
M  END
>  <id>  (1) 
12

>  <inchikey>  (1) 
DIJNPLGAABOOQW-UHFFFAOYSA-N

>  <alias>  (1) 
d0160a

>  <smiles>  (1) 
Cc1cn[nH]c1-c1ccncc1

>  <path>  (1) 
/opt/xchem-fragalysis-2/maxwin/BulkDock/TARGETS/Flavi_NS5_RdRp/aligned_files/d0160a/d0160a.pdb

>  <distance_score>  (1) 
None

>  <energy_score>  (1) 
None

>  <compound>  (1) 
DIJNPLGAABOOQW-UHFFFAOYSA-N

>  <compound_id>  (1) 
10

>  <target>  (1) 
Flavi_NS5_RdRp

$$$$
d0472a
     RDKit          3D

 12 13  0  0  0  0  0  0  0  0999 V2000
  -15.7750  -43.6370  -22.5880 N   0  0  0  0  0  0  0  0  0  0  0  0
  -15.1370  -44.0180  -21.4420 C   0  0  0  0  0  0  0  0  0  0  0  0
  -15.5660  -45.1350  -20.6910 C   0  0  0  0  0  0  0  0  0  0  0  0
  -15.0140  -45.4870  -19.5210 N   0  0  0  0  0  0  0  0  0  0  0  0
  -13.9920  -44.7430  -19.0650 C   0  0  0  0  0  0  0  0  0  0  0  0
  -13.4830  -43.6510  -19.7350 C   0  0  0  0  0  0  0  0  0  0  0  0
  -14.0650  -43.2880  -20.9320 C   0  0  0  0  0  0  0  0  0  0  0  0
  -16.5820  -46.0170  -21.1430 N   0  0  0  0  0  0  0  0  0  0  0  0
  -17.5610  -45.7280  -22.0730 C   0  0  0  0  0  0  0  0  0  0  0  0
  -18.3330  -46.8380  -22.2340 C   0  0  0  0  0  0  0  0  0  0  0  0
  -17.8230  -47.8430  -21.3830 C   0  0  0  0  0  0  0  0  0  0  0  0
  -16.7520  -47.3220  -20.7230 C   0  0  0  0  0  0  0  0  0  0  0  0
  2  1  1  0
  2  7  2  0
  7  6  1  0
  6  5  2  0
  5  4  1  0
  4  3  2  0
  3  2  1  0
  8  3  1  0
  8 12  1  0
 12 11  2  0
 11 10  1  0
 10  9  2  0
  9  8  1  0
M  END
>  <id>  (2) 
42

>  <inchikey>  (2) 
QCTDPVKLZRURRV-UHFFFAOYSA-N

>  <alias>  (2) 
d0472a

>  <smiles>  (2) 
Nc1cccnc1-n1cccc1

>  <path>  (2) 
/opt/xchem-fragalysis-2/maxwin/BulkDock/TARGETS/Flavi_NS5_RdRp/aligned_files/d0472a/d0472a.pdb

>  <distance_score>  (2) 
None

>  <energy_score>  (2) 
None

>  <compound>  (2) 
QCTDPVKLZRURRV-UHFFFAOYSA-N

>  <compound_id>  (2) 
35

>  <target>  (2) 
Flavi_NS5_RdRp

$$$$
5hmz-a
     RDKit          3D

 25 26  0  0  0  0  0  0  0  0999 V2000
  -16.3850  -44.4800  -19.4840 C   0  0  0  0  0  0  0  0  0  0  0  0
  -15.4090  -43.7600  -18.7960 C   0  0  0  0  0  0  0  0  0  0  0  0
  -14.4300  -43.0430  -19.5080 C   0  0  0  0  0  0  0  0  0  0  0  0
  -17.4350  -45.3200  -21.5580 C   0  0  0  0  0  0  0  0  0  0  0  0
  -19.0280  -46.3480  -23.1160 C   0  0  0  0  0  0  0  0  0  0  0  0
  -18.8540  -47.0840  -22.0150 C   0  0  0  0  0  0  0  0  0  0  0  0
  -17.9480  -46.5100  -21.1130 C   0  0  0  0  0  0  0  0  0  0  0  0
  -19.8180  -46.5800  -24.2700 C   0  0  0  0  0  0  0  0  0  0  0  0
  -15.7600  -42.1920  -14.5030 C   0  0  0  0  0  0  0  0  0  0  0  0
  -20.3920  -46.6600  -25.3100 C   0  0  0  0  0  0  0  0  0  0  0  0
  -20.9050  -46.7000  -26.6790 C   0  0  0  0  0  0  0  0  0  0  0  0
  -14.4930  -43.0500  -20.9000 C   0  0  0  0  0  0  0  0  0  0  0  0
  -15.4710  -43.7740  -21.5760 C   0  0  0  0  0  0  0  0  0  0  0  0
  -16.4260  -44.5080  -20.8730 C   0  0  0  0  0  0  0  0  0  0  0  0
  -15.5340  -43.7620  -17.3110 C   0  0  0  0  0  0  0  0  0  0  0  0
  -13.3210  -42.2770  -18.8210 C   0  0  0  0  0  0  0  0  0  0  0  0
  -15.4260  -43.7880  -22.9480 O   0  0  0  0  0  0  0  0  0  0  0  0
  -14.4150  -43.0450  -23.6430 C   0  0  0  0  0  0  0  0  0  0  0  0
  -14.6650  -44.2930  -16.6210 O   0  0  0  0  0  0  0  0  0  0  0  0
  -16.6530  -43.1520  -16.7890 N   0  0  0  0  0  0  0  0  0  0  0  0
  -18.0850  -44.9220  -23.0680 S   0  0  0  0  0  0  0  0  0  0  0  0
  -17.0310  -43.1020  -15.2300 S   0  0  0  0  0  0  0  0  0  0  0  0
  -16.9840  -44.4180  -14.7500 O   0  0  0  0  0  0  0  0  0  0  0  0
  -18.2330  -42.3530  -15.1500 O   0  0  0  0  0  0  0  0  0  0  0  0
  -22.1670  -46.0800  -26.7690 O   0  0  0  0  0  0  0  0  0  0  0  0
 25 11  1  0
 11 10  1  0
 10  8  3  0
  8  5  1  0
  5  6  2  0
  5 21  1  0
  6  7  1  0
  7  4  2  0
 21  4  1  0
  4 14  1  0
 14  1  2  0
 14 13  1  0
 17 13  1  0
 17 18  1  0
  1  2  1  0
 13 12  2  0
  2 15  1  0
  2  3  2  0
 12  3  1  0
 23 22  2  0
 20 15  1  0
 20 22  1  0
 15 19  2  0
 24 22  2  0
  3 16  1  0
 22  9  1  0
M  END
>  <id>  (3) 
227

>  <inchikey>  (3) 
BQEHLOAHCIMXML-UHFFFAOYSA-N

>  <alias>  (3) 
5hmz-a

>  <smiles>  (3) 
COc1cc(C)c(C(=O)NS(C)(=O)=O)cc1-c1ccc(C#CCO)s1

>  <path>  (3) 
/opt/xchem-fragalysis-2/maxwin/BulkDock/TARGETS/Flavi_NS5_RdRp/aligned_files/5hmz-a/5hmz-a.pdb

>  <distance_score>  (3) 
None

>  <energy_score>  (3) 
None

>  <compound>  (3) 
BQEHLOAHCIMXML-UHFFFAOYSA-N

>  <compound_id>  (3) 
160

>  <target>  (3) 
Flavi_NS5_RdRp

$$$$
