d0472a
     RDKit          3D

 12 13  0  0  0  0  0  0  0  0999 V2000
  -15.7750  -43.6370  -22.5880 N   0  0  0  0  0  0  0  0  0  0  0  0
  -15.1370  -44.0180  -21.4420 C   0  0  0  0  0  0  0  0  0  0  0  0
  -15.5660  -45.1350  -20.6910 C   0  0  0  0  0  0  0  0  0  0  0  0
  -15.0140  -45.4870  -19.5210 N   0  0  0  0  0  0  0  0  0  0  0  0
  -13.9920  -44.7430  -19.0650 C   0  0  0  0  0  0  0  0  0  0  0  0
  -13.4830  -43.6510  -19.7350 C   0  0  0  0  0  0  0  0  0  0  0  0
  -14.0650  -43.2880  -20.9320 C   0  0  0  0  0  0  0  0  0  0  0  0
  -16.5820  -46.0170  -21.1430 N   0  0  0  0  0  0  0  0  0  0  0  0
  -17.5610  -45.7280  -22.0730 C   0  0  0  0  0  0  0  0  0  0  0  0
  -18.3330  -46.8380  -22.2340 C   0  0  0  0  0  0  0  0  0  0  0  0
  -17.8230  -47.8430  -21.3830 C   0  0  0  0  0  0  0  0  0  0  0  0
  -16.7520  -47.3220  -20.7230 C   0  0  0  0  0  0  0  0  0  0  0  0
  2  1  1  0
  2  7  2  0
  7  6  1  0
  6  5  2  0
  5  4  1  0
  4  3  2  0
  3  2  1  0
  8  3  1  0
  8 12  1  0
 12 11  2  0
 11 10  1  0
 10  9  2  0
  9  8  1  0
M  END
>  <id>  (1) 
42

>  <inchikey>  (1) 
QCTDPVKLZRURRV-UHFFFAOYSA-N

>  <alias>  (1) 
d0472a

>  <smiles>  (1) 
Nc1cccnc1-n1cccc1

>  <path>  (1) 
/opt/xchem-fragalysis-2/maxwin/BulkDock/TARGETS/Flavi_NS5_RdRp/aligned_files/d0472a/d0472a.pdb

>  <distance_score>  (1) 
None

>  <energy_score>  (1) 
None

>  <compound>  (1) 
QCTDPVKLZRURRV-UHFFFAOYSA-N

>  <compound_id>  (1) 
35

>  <target>  (1) 
Flavi_NS5_RdRp

$$$$
d0612a
     RDKit          3D

 16 17  0  0  0  0  0  0  0  0999 V2000
  -13.7420  -44.9730  -19.1420 F   0  0  0  0  0  0  0  0  0  0  0  0
  -14.1440  -44.1640  -20.1680 C   0  0  0  0  0  0  0  0  0  0  0  0
  -13.4440  -43.0190  -20.4000 C   0  0  0  0  0  0  0  0  0  0  0  0
  -13.8550  -42.1920  -21.4290 C   0  0  0  0  0  0  0  0  0  0  0  0
  -15.2410  -44.5320  -20.9060 C   0  0  0  0  0  0  0  0  0  0  0  0
  -15.6570  -43.6970  -21.9320 C   0  0  0  0  0  0  0  0  0  0  0  0
  -14.9670  -42.5160  -22.2110 C   0  0  0  0  0  0  0  0  0  0  0  0
  -15.3700  -41.6670  -23.2520 N   0  0  0  0  0  0  0  0  0  0  0  0
  -16.2840  -42.0770  -24.3180 C   0  0  0  0  0  0  0  0  0  0  0  0
  -15.9790  -41.3250  -25.5950 C   0  0  0  0  0  0  0  0  0  0  0  0
  -15.4270  -40.2230  -23.0130 C   0  0  0  0  0  0  0  0  0  0  0  0
  -15.1170  -39.4550  -24.2680 C   0  0  0  0  0  0  0  0  0  0  0  0
  -15.9970  -39.8740  -25.3650 N   0  0  0  0  0  0  0  0  0  0  0  0
  -15.8750  -39.0560  -26.5620 C   0  0  0  0  0  0  0  0  0  0  0  0
  -15.3290  -37.9410  -26.4740 O   0  0  0  0  0  0  0  0  0  0  0  0
  -16.3260  -39.5440  -27.7270 N   0  0  0  0  0  0  0  0  0  0  0  0
 16 14  1  0
 15 14  2  0
 14 13  1  0
 13 10  1  0
 10  9  1  0
  9  8  1  0
 11  8  1  0
 12 11  1  0
 13 12  1  0
  8  7  1  0
  7  4  2  0
  4  3  1  0
  3  2  2  0
  2  1  1  0
  5  2  1  0
  6  5  2  0
  7  6  1  0
M  END
>  <id>  (2) 
49

>  <inchikey>  (2) 
XARVCWHXIZRCGB-UHFFFAOYSA-N

>  <alias>  (2) 
d0612a

>  <smiles>  (2) 
NC(=O)N1CCN(c2ccc(F)cc2)CC1

>  <path>  (2) 
/opt/xchem-fragalysis-2/maxwin/BulkDock/TARGETS/Flavi_NS5_RdRp/aligned_files/d0612a/d0612a.pdb

>  <distance_score>  (2) 
None

>  <energy_score>  (2) 
None

>  <compound>  (2) 
XARVCWHXIZRCGB-UHFFFAOYSA-N

>  <compound_id>  (2) 
42

>  <target>  (2) 
Flavi_NS5_RdRp

$$$$
