z0483a
     RDKit          3D

 17 18  0  0  0  0  0  0  0  0999 V2000
  -29.1540  -28.7900  -17.1470 F   0  0  0  0  0  0  0  0  0  0  0  0
  -28.2140  -29.2590  -18.0100 C   0  0  0  0  0  0  0  0  0  0  0  0
  -26.9030  -29.2670  -17.6050 C   0  0  0  0  0  0  0  0  0  0  0  0
  -25.9600  -29.8420  -18.4390 C   0  0  0  0  0  0  0  0  0  0  0  0
  -28.6270  -29.7570  -19.2180 C   0  0  0  0  0  0  0  0  0  0  0  0
  -27.6800  -30.3300  -20.0490 C   0  0  0  0  0  0  0  0  0  0  0  0
  -26.3430  -30.3960  -19.6580 C   0  0  0  0  0  0  0  0  0  0  0  0
  -25.3650  -31.1020  -20.4030 N   0  0  0  0  0  0  0  0  0  0  0  0
  -25.3940  -31.3280  -21.7440 C   0  0  0  0  0  0  0  0  0  0  0  0
  -26.3100  -30.9230  -22.4570 O   0  0  0  0  0  0  0  0  0  0  0  0
  -24.3490  -32.0440  -22.2610 N   0  0  0  0  0  0  0  0  0  0  0  0
  -24.3310  -32.0160  -23.7320 C   0  0  0  0  0  0  0  0  0  0  0  0
  -23.5500  -33.1910  -24.2760 C   0  0  0  0  0  0  0  0  0  0  0  0
  -23.0060  -32.1660  -21.6670 C   0  0  0  0  0  0  0  0  0  0  0  0
  -22.2380  -33.3270  -22.2970 C   0  0  0  0  0  0  0  0  0  0  0  0
  -22.1900  -33.1910  -23.7510 N   0  0  0  0  0  0  0  0  0  0  0  0
  -21.4090  -34.2680  -24.3500 C   0  0  0  0  0  0  0  0  0  0  0  0
 17 16  1  0
 16 13  1  0
 13 12  1  0
 12 11  1  0
 14 11  1  0
 15 14  1  0
 16 15  1  0
 11  9  1  0
 10  9  2  0
  9  8  1  0
  8  7  1  0
  7  4  2  0
  4  3  1  0
  3  2  2  0
  2  1  1  0
  5  2  1  0
  6  5  2  0
  7  6  1  0
M  END
>  <id>  (1) 
133

>  <inchikey>  (1) 
MDBPFVSVLGYVCQ-UHFFFAOYSA-N

>  <alias>  (1) 
z0483a

>  <smiles>  (1) 
CN1CCN(C(=O)Nc2ccc(F)cc2)CC1

>  <path>  (1) 
/opt/xchem-fragalysis-2/maxwin/BulkDock/TARGETS/Flavi_NS5_RdRp/aligned_files/z0483a/z0483a.pdb

>  <distance_score>  (1) 
None

>  <energy_score>  (1) 
None

>  <compound>  (1) 
MDBPFVSVLGYVCQ-UHFFFAOYSA-N

>  <compound_id>  (1) 
102

>  <target>  (1) 
Flavi_NS5_RdRp

$$$$
z0936a
     RDKit          3D

 12 13  0  0  0  0  0  0  0  0999 V2000
  -31.0190  -29.9040  -21.3950 C   0  0  0  0  0  0  0  0  0  0  0  0
  -29.9580  -29.9490  -20.3520 C   0  0  0  0  0  0  0  0  0  0  0  0
  -28.6590  -29.9330  -20.6850 N   0  0  0  0  0  0  0  0  0  0  0  0
  -27.8580  -29.9570  -19.6090 N   0  0  0  0  0  0  0  0  0  0  0  0
  -28.6830  -29.9820  -18.5540 C   0  0  0  0  0  0  0  0  0  0  0  0
  -30.0220  -29.9890  -18.9800 C   0  0  0  0  0  0  0  0  0  0  0  0
  -28.1440  -29.9490  -17.1880 C   0  0  0  0  0  0  0  0  0  0  0  0
  -28.9900  -29.8360  -16.0960 C   0  0  0  0  0  0  0  0  0  0  0  0
  -28.4730  -29.7820  -14.8130 C   0  0  0  0  0  0  0  0  0  0  0  0
  -27.1140  -29.8360  -14.6100 C   0  0  0  0  0  0  0  0  0  0  0  0
  -26.2690  -29.9480  -15.6850 C   0  0  0  0  0  0  0  0  0  0  0  0
  -26.7760  -30.0080  -16.9700 C   0  0  0  0  0  0  0  0  0  0  0  0
  2  1  1  0
  2  6  2  0
  6  5  1  0
  5  4  2  0
  4  3  1  0
  3  2  1  0
  7  5  1  0
  7 12  2  0
 12 11  1  0
 11 10  2  0
 10  9  1  0
  9  8  2  0
  8  7  1  0
M  END
>  <id>  (2) 
196

>  <inchikey>  (2) 
QHRSESMSOJZMCO-UHFFFAOYSA-N

>  <alias>  (2) 
z0936a

>  <smiles>  (2) 
Cc1cc(-c2ccccc2)n[nH]1

>  <path>  (2) 
/opt/xchem-fragalysis-2/maxwin/BulkDock/TARGETS/Flavi_NS5_RdRp/aligned_files/z0936a/z0936a.pdb

>  <distance_score>  (2) 
None

>  <energy_score>  (2) 
None

>  <compound>  (2) 
QHRSESMSOJZMCO-UHFFFAOYSA-N

>  <compound_id>  (2) 
136

>  <target>  (2) 
Flavi_NS5_RdRp

$$$$
