d0174a
     RDKit          3D

 16 17  0  0  0  0  0  0  0  0999 V2000
  -14.5260  -69.9790  -19.0550 O   0  0  0  0  0  0  0  0  0  0  0  0
  -13.8380  -69.6370  -20.2620 S   0  0  0  0  0  0  0  0  0  0  0  0
  -13.0170  -68.4660  -20.2910 O   0  0  0  0  0  0  0  0  0  0  0  0
  -15.0450  -69.4890  -21.5600 C   0  0  0  0  0  0  0  0  0  0  0  0
  -14.4150  -69.4670  -22.9280 C   0  0  0  0  0  0  0  0  0  0  0  0
  -12.8600  -70.9160  -20.6410 N   0  0  0  0  0  0  0  0  0  0  0  0
  -11.5650  -70.7230  -21.3130 C   0  0  0  0  0  0  0  0  0  0  0  0
  -10.3650  -70.9940  -20.4370 C   0  0  0  0  0  0  0  0  0  0  0  0
   -9.0840  -70.7120  -20.9060 C   0  0  0  0  0  0  0  0  0  0  0  0
   -8.0010  -70.9900  -20.0990 C   0  0  0  0  0  0  0  0  0  0  0  0
   -6.6650  -70.7580  -20.3430 O   0  0  0  0  0  0  0  0  0  0  0  0
   -6.0100  -71.0190  -19.0990 C   0  0  0  0  0  0  0  0  0  0  0  0
   -6.9370  -71.6950  -18.2470 O   0  0  0  0  0  0  0  0  0  0  0  0
   -8.1640  -71.5420  -18.8550 C   0  0  0  0  0  0  0  0  0  0  0  0
   -9.4190  -71.8390  -18.3620 C   0  0  0  0  0  0  0  0  0  0  0  0
  -10.5140  -71.5510  -19.1640 C   0  0  0  0  0  0  0  0  0  0  0  0
  5  4  1  0
  4  2  1  0
  3  2  2  0
  2  1  2  0
  6  2  1  0
  7  6  1  0
  8  7  1  0
  8 16  2  0
 16 15  1  0
 15 14  2  0
 14 13  1  0
 13 12  1  0
 12 11  1  0
 11 10  1  0
 14 10  1  0
 10  9  2  0
  9  8  1  0
M  END
>  <id>  (1) 
17

>  <inchikey>  (1) 
UKPLBUIFSDRLEZ-UHFFFAOYSA-N

>  <alias>  (1) 
d0174a

>  <smiles>  (1) 
CCS(=O)(=O)NCc1ccc2c(c1)OCO2

>  <path>  (1) 
/opt/xchem-fragalysis-2/maxwin/BulkDock/TARGETS/Flavi_NS5_RdRp/aligned_files/d0174a/d0174a.pdb

>  <distance_score>  (1) 
None

>  <energy_score>  (1) 
None

>  <compound>  (1) 
UKPLBUIFSDRLEZ-UHFFFAOYSA-N

>  <compound_id>  (1) 
14

>  <target>  (1) 
Flavi_NS5_RdRp

$$$$
d0693a
     RDKit          3D

 18 20  0  0  0  0  0  0  0  0999 V2000
   -2.3110  -67.9860  -21.6070 N   0  0  0  0  0  0  0  0  0  0  0  0
   -2.9640  -68.7750  -21.1030 C   0  0  0  0  0  0  0  0  0  0  0  0
   -3.8140  -69.7360  -20.4460 C   0  0  0  0  0  0  0  0  0  0  0  0
   -4.6120  -69.3470  -19.3720 C   0  0  0  0  0  0  0  0  0  0  0  0
   -5.5100  -70.2430  -18.8180 C   0  0  0  0  0  0  0  0  0  0  0  0
   -5.6390  -71.5320  -19.3160 C   0  0  0  0  0  0  0  0  0  0  0  0
   -4.8090  -71.9230  -20.3580 C   0  0  0  0  0  0  0  0  0  0  0  0
   -3.9060  -71.0410  -20.9250 C   0  0  0  0  0  0  0  0  0  0  0  0
   -6.7120  -72.4560  -18.7930 C   0  0  0  0  0  0  0  0  0  0  0  0
   -8.0110  -71.7960  -18.6230 N   0  0  0  0  0  0  0  0  0  0  0  0
   -8.7840  -71.2310  -19.6250 C   0  0  0  0  0  0  0  0  0  0  0  0
   -9.9350  -70.7680  -18.9880 C   0  0  0  0  0  0  0  0  0  0  0  0
   -9.8640  -71.0320  -17.6160 N   0  0  0  0  0  0  0  0  0  0  0  0
   -8.7120  -71.6350  -17.4630 C   0  0  0  0  0  0  0  0  0  0  0  0
   -8.5850  -71.0810  -20.9910 C   0  0  0  0  0  0  0  0  0  0  0  0
   -9.5870  -70.4570  -21.7250 C   0  0  0  0  0  0  0  0  0  0  0  0
  -10.7500  -70.0010  -21.1060 C   0  0  0  0  0  0  0  0  0  0  0  0
  -10.9350  -70.1490  -19.7360 C   0  0  0  0  0  0  0  0  0  0  0  0
  2  1  3  0
  3  2  1  0
  3  8  2  0
  8  7  1  0
  7  6  2  0
  9  6  1  0
 10  9  1  0
 10 14  1  0
 14 13  2  0
 13 12  1  0
 12 18  2  0
 18 17  1  0
 17 16  2  0
 16 15  1  0
 15 11  2  0
 11 10  1  0
 12 11  1  0
  6  5  1  0
  5  4  2  0
  4  3  1  0
M  END
>  <id>  (2) 
53

>  <inchikey>  (2) 
KZMYEQMVROHICO-UHFFFAOYSA-N

>  <alias>  (2) 
d0693a

>  <smiles>  (2) 
N#Cc1ccc(Cn2cnc3ccccc32)cc1

>  <path>  (2) 
/opt/xchem-fragalysis-2/maxwin/BulkDock/TARGETS/Flavi_NS5_RdRp/aligned_files/d0693a/d0693a.pdb

>  <distance_score>  (2) 
None

>  <energy_score>  (2) 
None

>  <compound>  (2) 
KZMYEQMVROHICO-UHFFFAOYSA-N

>  <compound_id>  (2) 
45

>  <target>  (2) 
Flavi_NS5_RdRp

$$$$
