d0191a
     RDKit          3D

 12 13  0  0  0  0  0  0  0  0999 V2000
  -14.7240  -41.6290  -24.2740 C   0  0  0  0  0  0  0  0  0  0  0  0
  -15.1980  -42.8250  -23.8310 C   0  0  0  0  0  0  0  0  0  0  0  0
  -16.1900  -43.2470  -24.7330 C   0  0  0  0  0  0  0  0  0  0  0  0
  -16.2940  -42.2990  -25.7020 C   0  0  0  0  0  0  0  0  0  0  0  0
  -15.3980  -41.2940  -25.4230 N   0  0  0  0  0  0  0  0  0  0  0  0
  -15.2480  -40.0370  -26.1670 C   0  0  0  0  0  0  0  0  0  0  0  0
  -16.3550  -39.0540  -25.8750 C   0  0  0  0  0  0  0  0  0  0  0  0
  -17.4060  -38.8590  -26.7540 C   0  0  0  0  0  0  0  0  0  0  0  0
  -18.3830  -37.9610  -26.5720 N   0  0  0  0  0  0  0  0  0  0  0  0
  -18.3220  -37.2060  -25.4700 C   0  0  0  0  0  0  0  0  0  0  0  0
  -17.3280  -37.3290  -24.5260 C   0  0  0  0  0  0  0  0  0  0  0  0
  -16.3410  -38.2750  -24.7310 C   0  0  0  0  0  0  0  0  0  0  0  0
  7  6  1  0
  7 12  2  0
 12 11  1  0
 11 10  2  0
 10  9  1  0
  9  8  2  0
  8  7  1  0
  6  5  1  0
  5  4  1  0
  4  3  2  0
  3  2  1  0
  2  1  2  0
  5  1  1  0
M  END
>  <id>  (1) 
19

>  <inchikey>  (1) 
PJVWPGGKILHMKW-UHFFFAOYSA-N

>  <alias>  (1) 
d0191a

>  <smiles>  (1) 
c1cncc(Cn2cccc2)c1

>  <path>  (1) 
/opt/xchem-fragalysis-2/maxwin/BulkDock/TARGETS/Flavi_NS5_RdRp/aligned_files/d0191a/d0191a.pdb

>  <distance_score>  (1) 
None

>  <energy_score>  (1) 
None

>  <compound>  (1) 
PJVWPGGKILHMKW-UHFFFAOYSA-N

>  <compound_id>  (1) 
16

>  <target>  (1) 
Flavi_NS5_RdRp

$$$$
d0254a
     RDKit          3D

 15 16  0  0  0  0  0  0  0  0999 V2000
  -18.5140  -44.9440  -23.0850 O   0  0  0  0  0  0  0  0  0  0  0  0
  -17.5800  -44.9250  -22.2900 C   0  0  0  0  0  0  0  0  0  0  0  0
  -17.6230  -45.8150  -21.0530 C   0  0  1  0  0  0  0  0  0  0  0  0
  -16.4130  -45.7010  -20.2780 O   0  0  0  0  0  0  0  0  0  0  0  0
  -16.7580  -45.4230  -18.9190 C   0  0  0  0  0  0  0  0  0  0  0  0
  -18.2140  -45.7750  -18.7620 C   0  0  0  0  0  0  0  0  0  0  0  0
  -18.7790  -45.4810  -20.1350 C   0  0  0  0  0  0  0  0  0  0  0  0
  -16.4730  -44.1500  -22.4210 N   0  0  0  0  0  0  0  0  0  0  0  0
  -16.1690  -43.2350  -23.4440 C   0  0  0  0  0  0  0  0  0  0  0  0
  -16.8900  -43.1390  -24.6480 C   0  0  0  0  0  0  0  0  0  0  0  0
  -16.5400  -42.1420  -25.5370 C   0  0  0  0  0  0  0  0  0  0  0  0
  -15.1490  -42.4110  -23.1580 N   0  0  0  0  0  0  0  0  0  0  0  0
  -14.8480  -41.4540  -24.0500 C   0  0  0  0  0  0  0  0  0  0  0  0
  -15.5130  -41.2620  -25.2530 C   0  0  0  0  0  0  0  0  0  0  0  0
  -15.1640  -40.1290  -26.1880 C   0  0  0  0  0  0  0  0  0  0  0  0
 15 14  1  0
 14 11  1  0
 11 10  2  0
 10  9  1  0
  9  8  1  0
  8  2  1  0
  2  1  2  0
  3  2  1  6
  3  7  1  0
  7  6  1  0
  6  5  1  0
  5  4  1  0
  4  3  1  0
 12  9  2  0
 13 12  1  0
 14 13  2  0
M  END
>  <id>  (2) 
26

>  <inchikey>  (2) 
BFRXGCPOQMOBHK-VIFPVBQESA-N

>  <alias>  (2) 
d0254a

>  <smiles>  (2) 
Cc1ccc(NC(=O)[C@@H]2CCCO2)nc1

>  <path>  (2) 
/opt/xchem-fragalysis-2/maxwin/BulkDock/TARGETS/Flavi_NS5_RdRp/aligned_files/d0254a/d0254a.pdb

>  <distance_score>  (2) 
None

>  <energy_score>  (2) 
None

>  <compound>  (2) 
BFRXGCPOQMOBHK-UHFFFAOYSA-N

>  <compound_id>  (2) 
22

>  <target>  (2) 
Flavi_NS5_RdRp

$$$$
