d0248a
     RDKit          3D

 15 15  0  0  0  0  0  0  0  0999 V2000
   -7.0320  -71.1660  -20.4820 Cl  0  0  0  0  0  0  0  0  0  0  0  0
   -8.7430  -71.0200  -20.1870 C   0  0  0  0  0  0  0  0  0  0  0  0
   -9.2120  -71.1280  -18.8950 C   0  0  0  0  0  0  0  0  0  0  0  0
  -10.5600  -70.9230  -18.6570 C   0  0  0  0  0  0  0  0  0  0  0  0
  -11.4220  -70.6340  -19.6990 C   0  0  0  0  0  0  0  0  0  0  0  0
   -9.5880  -70.7500  -21.2480 C   0  0  0  0  0  0  0  0  0  0  0  0
  -10.9480  -70.5620  -21.0070 C   0  0  0  0  0  0  0  0  0  0  0  0
  -11.8990  -70.3120  -22.1350 C   0  0  0  0  0  0  0  0  0  0  0  0
  -11.5080  -69.8210  -23.1900 O   0  0  0  0  0  0  0  0  0  0  0  0
  -13.1850  -70.6790  -21.9440 N   0  0  0  0  0  0  0  0  0  0  0  0
  -14.3290  -70.5310  -22.8740 C   0  0  0  0  0  0  0  0  0  0  0  0
  -14.3380  -69.1100  -23.4320 C   0  0  0  0  0  0  0  0  0  0  0  0
  -15.6200  -70.7710  -22.0890 C   0  0  0  0  0  0  0  0  0  0  0  0
  -14.2780  -71.5420  -24.0360 C   0  0  0  0  0  0  0  0  0  0  0  0
  -13.0170  -71.6100  -24.6870 O   0  0  0  0  0  0  0  0  0  0  0  0
 12 11  1  0
 13 11  1  0
 14 11  1  0
 15 14  1  0
 11 10  1  0
 10  8  1  0
  9  8  2  0
  8  7  1  0
  7  5  1  0
  5  4  2  0
  4  3  1  0
  3  2  2  0
  2  1  1  0
  6  2  1  0
  7  6  2  0
M  END
>  <id>  (1) 
22

>  <inchikey>  (1) 
XZDXDRPMHCVWBK-UHFFFAOYSA-N

>  <alias>  (1) 
d0248a

>  <smiles>  (1) 
CC(C)(CO)NC(=O)c1cccc(Cl)c1

>  <path>  (1) 
/opt/xchem-fragalysis-2/maxwin/BulkDock/TARGETS/Flavi_NS5_RdRp/aligned_files/d0248a/d0248a.pdb

>  <distance_score>  (1) 
None

>  <energy_score>  (1) 
None

>  <compound>  (1) 
XZDXDRPMHCVWBK-UHFFFAOYSA-N

>  <compound_id>  (1) 
18

>  <target>  (1) 
Flavi_NS5_RdRp

$$$$
d0279a
     RDKit          3D

 14 15  0  0  0  0  0  0  0  0999 V2000
  -11.4380  -70.0300  -20.7050 F   0  0  0  0  0  0  0  0  0  0  0  0
  -10.1750  -70.4220  -20.3810 C   0  0  0  0  0  0  0  0  0  0  0  0
   -9.9850  -71.3320  -19.3710 C   0  0  0  0  0  0  0  0  0  0  0  0
   -8.7520  -71.7210  -19.0030 N   0  0  0  0  0  0  0  0  0  0  0  0
   -7.6990  -71.1840  -19.6470 C   0  0  0  0  0  0  0  0  0  0  0  0
   -7.8490  -70.2460  -20.6770 C   0  0  0  0  0  0  0  0  0  0  0  0
   -9.1260  -69.8760  -21.0540 C   0  0  0  0  0  0  0  0  0  0  0  0
   -6.4400  -71.5750  -19.2490 N   0  0  0  0  0  0  0  0  0  0  0  0
   -5.2400  -71.5040  -20.0880 C   0  0  0  0  0  0  0  0  0  0  0  0
   -4.2680  -72.6290  -19.7650 C   0  0  0  0  0  0  0  0  0  0  0  0
   -3.0110  -72.4640  -20.5840 C   0  0  0  0  0  0  0  0  0  0  0  0
   -2.3920  -71.1940  -20.3430 O   0  0  0  0  0  0  0  0  0  0  0  0
   -3.2630  -70.1340  -20.7410 C   0  0  0  0  0  0  0  0  0  0  0  0
   -4.5500  -70.1520  -19.9520 C   0  0  0  0  0  0  0  0  0  0  0  0
  2  1  1  0
  2  7  2  0
  7  6  1  0
  6  5  2  0
  8  5  1  0
  9  8  1  0
  9 14  1  0
 14 13  1  0
 13 12  1  0
 12 11  1  0
 11 10  1  0
 10  9  1  0
  5  4  1  0
  4  3  2  0
  3  2  1  0
M  END
>  <id>  (2) 
29

>  <inchikey>  (2) 
DGYWCGILBGNERL-UHFFFAOYSA-N

>  <alias>  (2) 
d0279a

>  <smiles>  (2) 
Fc1ccc(NC2CCOCC2)nc1

>  <path>  (2) 
/opt/xchem-fragalysis-2/maxwin/BulkDock/TARGETS/Flavi_NS5_RdRp/aligned_files/d0279a/d0279a.pdb

>  <distance_score>  (2) 
None

>  <energy_score>  (2) 
None

>  <compound>  (2) 
DGYWCGILBGNERL-UHFFFAOYSA-N

>  <compound_id>  (2) 
25

>  <target>  (2) 
Flavi_NS5_RdRp

$$$$
d0615a
     RDKit          3D

 15 16  0  0  0  0  0  0  0  0999 V2000
   -9.9770  -70.4000  -24.2040 F   0  0  0  0  0  0  0  0  0  0  0  0
  -10.3170  -70.3840  -22.8830 C   0  0  0  0  0  0  0  0  0  0  0  0
  -11.6190  -70.1390  -22.5230 C   0  0  0  0  0  0  0  0  0  0  0  0
  -11.9820  -70.0550  -21.2380 N   0  0  0  0  0  0  0  0  0  0  0  0
  -11.0340  -70.2290  -20.3060 C   0  0  0  0  0  0  0  0  0  0  0  0
   -9.3340  -70.5690  -21.9440 C   0  0  0  0  0  0  0  0  0  0  0  0
   -9.6950  -70.4920  -20.6020 C   0  0  0  0  0  0  0  0  0  0  0  0
   -8.7480  -70.6630  -19.6050 N   0  0  0  0  0  0  0  0  0  0  0  0
   -7.9260  -71.8530  -19.4540 C   0  0  0  0  0  0  0  0  0  0  0  0
   -6.4770  -71.6580  -19.8090 C   0  0  0  0  0  0  0  0  0  0  0  0
   -5.7780  -72.2410  -20.8040 C   0  0  0  0  0  0  0  0  0  0  0  0
   -4.4830  -71.8200  -20.9930 N   0  0  0  0  0  0  0  0  0  0  0  0
   -5.4580  -70.5080  -19.0050 S   0  0  0  0  0  0  0  0  0  0  0  0
   -4.1850  -70.8990  -20.1230 C   0  0  0  0  0  0  0  0  0  0  0  0
   -2.8820  -70.1730  -20.1080 C   0  0  0  0  0  0  0  0  0  0  0  0
 15 14  1  0
 14 12  2  0
 12 11  1  0
 11 10  2  0
 10  9  1  0
  9  8  1  0
  8  7  1  0
  7  5  1  0
  5  4  2  0
  4  3  1  0
  3  2  2  0
  2  1  1  0
  6  2  1  0
  7  6  2  0
 13 10  1  0
 14 13  1  0
M  END
>  <id>  (3) 
50

>  <inchikey>  (3) 
SSOIKBIBPGCZFT-UHFFFAOYSA-N

>  <alias>  (3) 
d0615a

>  <smiles>  (3) 
Cc1ncc(CNc2cncc(F)c2)s1

>  <path>  (3) 
/opt/xchem-fragalysis-2/maxwin/BulkDock/TARGETS/Flavi_NS5_RdRp/aligned_files/d0615a/d0615a_hippo.pdb

>  <distance_score>  (3) 
None

>  <energy_score>  (3) 
None

>  <compound>  (3) 
SSOIKBIBPGCZFT-UHFFFAOYSA-N

>  <compound_id>  (3) 
43

>  <target>  (3) 
Flavi_NS5_RdRp

$$$$
