d0174a
     RDKit          3D

 16 17  0  0  0  0  0  0  0  0999 V2000
  -14.5260  -69.9790  -19.0550 O   0  0  0  0  0  0  0  0  0  0  0  0
  -13.8380  -69.6370  -20.2620 S   0  0  0  0  0  0  0  0  0  0  0  0
  -13.0170  -68.4660  -20.2910 O   0  0  0  0  0  0  0  0  0  0  0  0
  -15.0450  -69.4890  -21.5600 C   0  0  0  0  0  0  0  0  0  0  0  0
  -14.4150  -69.4670  -22.9280 C   0  0  0  0  0  0  0  0  0  0  0  0
  -12.8600  -70.9160  -20.6410 N   0  0  0  0  0  0  0  0  0  0  0  0
  -11.5650  -70.7230  -21.3130 C   0  0  0  0  0  0  0  0  0  0  0  0
  -10.3650  -70.9940  -20.4370 C   0  0  0  0  0  0  0  0  0  0  0  0
   -9.0840  -70.7120  -20.9060 C   0  0  0  0  0  0  0  0  0  0  0  0
   -8.0010  -70.9900  -20.0990 C   0  0  0  0  0  0  0  0  0  0  0  0
   -6.6650  -70.7580  -20.3430 O   0  0  0  0  0  0  0  0  0  0  0  0
   -6.0100  -71.0190  -19.0990 C   0  0  0  0  0  0  0  0  0  0  0  0
   -6.9370  -71.6950  -18.2470 O   0  0  0  0  0  0  0  0  0  0  0  0
   -8.1640  -71.5420  -18.8550 C   0  0  0  0  0  0  0  0  0  0  0  0
   -9.4190  -71.8390  -18.3620 C   0  0  0  0  0  0  0  0  0  0  0  0
  -10.5140  -71.5510  -19.1640 C   0  0  0  0  0  0  0  0  0  0  0  0
  5  4  1  0
  4  2  1  0
  3  2  2  0
  2  1  2  0
  6  2  1  0
  7  6  1  0
  8  7  1  0
  8 16  2  0
 16 15  1  0
 15 14  2  0
 14 13  1  0
 13 12  1  0
 12 11  1  0
 11 10  1  0
 14 10  1  0
 10  9  2  0
  9  8  1  0
M  END
>  <id>  (1) 
17

>  <inchikey>  (1) 
UKPLBUIFSDRLEZ-UHFFFAOYSA-N

>  <alias>  (1) 
d0174a

>  <smiles>  (1) 
CCS(=O)(=O)NCc1ccc2c(c1)OCO2

>  <path>  (1) 
/opt/xchem-fragalysis-2/maxwin/BulkDock/TARGETS/Flavi_NS5_RdRp/aligned_files/d0174a/d0174a.pdb

>  <distance_score>  (1) 
None

>  <energy_score>  (1) 
None

>  <compound>  (1) 
UKPLBUIFSDRLEZ-UHFFFAOYSA-N

>  <compound_id>  (1) 
14

>  <target>  (1) 
Flavi_NS5_RdRp

$$$$
d0566a
     RDKit          3D

 16 17  0  0  0  0  0  0  0  0999 V2000
   -3.1800  -70.6910  -21.5760 O   0  0  0  0  0  0  0  0  0  0  0  0
   -3.6470  -70.0960  -20.6240 C   0  0  0  0  0  0  0  0  0  0  0  0
   -3.3160  -68.8570  -20.2440 N   0  0  0  0  0  0  0  0  0  0  0  0
   -2.5250  -67.9470  -21.0580 C   0  0  0  0  0  0  0  0  0  0  0  0
   -4.6880  -70.6230  -19.6360 C   0  0  1  0  0  0  0  0  0  0  0  0
   -4.5010  -69.7110  -18.4180 C   0  0  0  0  0  0  0  0  0  0  0  0
   -3.7910  -68.4600  -18.9280 C   0  0  0  0  0  0  0  0  0  0  0  0
   -6.0040  -70.5010  -20.2070 O   0  0  0  0  0  0  0  0  0  0  0  0
   -7.0970  -70.9910  -19.5220 C   0  0  0  0  0  0  0  0  0  0  0  0
   -8.3420  -70.6880  -20.0630 C   0  0  0  0  0  0  0  0  0  0  0  0
   -8.4070  -69.9380  -21.1770 F   0  0  0  0  0  0  0  0  0  0  0  0
   -9.5520  -71.0910  -19.5130 C   0  0  0  0  0  0  0  0  0  0  0  0
  -10.8980  -70.7560  -20.1050 C   0  0  0  0  0  0  0  0  0  0  0  0
   -9.4750  -71.8420  -18.3430 C   0  0  0  0  0  0  0  0  0  0  0  0
   -8.2540  -72.1590  -17.7680 C   0  0  0  0  0  0  0  0  0  0  0  0
   -7.0680  -71.7410  -18.3520 C   0  0  0  0  0  0  0  0  0  0  0  0
  4  3  1  0
  3  7  1  0
  7  6  1  0
  6  5  1  0
  5  8  1  6
  9  8  1  0
  9 16  2  0
 16 15  1  0
 15 14  2  0
 14 12  1  0
 13 12  1  0
 12 10  2  0
 10  9  1  0
 11 10  1  0
  5  2  1  0
  3  2  1  0
  2  1  2  0
M  END
>  <id>  (2) 
45

>  <inchikey>  (2) 
ZGHOVIJLBUUPON-SNVBAGLBSA-N

>  <alias>  (2) 
d0566a

>  <smiles>  (2) 
Cc1cccc(O[C@@H]2CCN(C)C2=O)c1F

>  <path>  (2) 
/opt/xchem-fragalysis-2/maxwin/BulkDock/TARGETS/Flavi_NS5_RdRp/aligned_files/d0566a/d0566a.pdb

>  <distance_score>  (2) 
None

>  <energy_score>  (2) 
None

>  <compound>  (2) 
ZGHOVIJLBUUPON-UHFFFAOYSA-N

>  <compound_id>  (2) 
38

>  <target>  (2) 
Flavi_NS5_RdRp

$$$$
