z0136b
     RDKit          3D

 13 14  0  0  0  0  0  0  0  0999 V2000
  -21.2870  -60.4340   -0.0700 O   0  0  0  0  0  0  0  0  0  0  0  0
  -22.1730  -59.8700    0.5630 C   0  0  0  0  0  0  0  0  0  0  0  0
  -21.8690  -58.8890    1.6590 C   0  0  0  0  0  0  0  0  0  0  0  0
  -23.4890  -60.0640    0.3150 N   0  0  0  0  0  0  0  0  0  0  0  0
  -24.2900  -59.2690   -0.5350 C   0  0  0  0  0  0  0  0  0  0  0  0
  -25.1510  -59.8670   -1.4650 C   0  0  0  0  0  0  0  0  0  0  0  0
  -25.3400  -61.1920   -1.7840 N   0  0  0  0  0  0  0  0  0  0  0  0
  -26.2660  -61.2710   -2.7940 C   0  0  0  0  0  0  0  0  0  0  0  0
  -26.6860  -60.0290   -3.1410 C   0  0  0  0  0  0  0  0  0  0  0  0
  -25.9840  -59.0990   -2.3090 C   0  0  0  0  0  0  0  0  0  0  0  0
  -25.9310  -57.7080   -2.2100 C   0  0  0  0  0  0  0  0  0  0  0  0
  -25.0590  -57.1030   -1.3190 C   0  0  0  0  0  0  0  0  0  0  0  0
  -24.2530  -57.8700   -0.4890 C   0  0  0  0  0  0  0  0  0  0  0  0
  3  2  1  0
  2  1  2  0
  4  2  1  0
  5  4  1  0
  5 13  2  0
 13 12  1  0
 12 11  2  0
 11 10  1  0
 10  9  1  0
  9  8  2  0
  8  7  1  0
  7  6  1  0
  6  5  1  0
 10  6  2  0
M  END
>  <id>  (1) 
90

>  <inchikey>  (1) 
DCOHDTHCOCZQTO-UHFFFAOYSA-N

>  <alias>  (1) 
z0136b

>  <smiles>  (1) 
CC(=O)Nc1cccc2cc[nH]c12

>  <path>  (1) 
/opt/xchem-fragalysis-2/maxwin/BulkDock/TARGETS/Flavi_NS5_RdRp/aligned_files/z0136b/z0136b.pdb

>  <distance_score>  (1) 
None

>  <energy_score>  (1) 
None

>  <compound>  (1) 
DCOHDTHCOCZQTO-UHFFFAOYSA-N

>  <compound_id>  (1) 
73

>  <target>  (1) 
Flavi_NS5_RdRp

$$$$
z0184a
     RDKit          3D

 13 13  0  0  0  0  0  0  0  0999 V2000
  -26.9330  -60.1530   -3.2580 O   0  0  0  0  0  0  0  0  0  0  0  0
  -26.0760  -60.9040   -2.8030 C   0  0  0  0  0  0  0  0  0  0  0  0
  -25.8560  -62.2860   -3.4110 C   0  0  0  0  0  0  0  0  0  0  0  0
  -27.1260  -62.9670   -3.5400 N   0  0  0  0  0  0  0  0  0  0  0  0
  -25.2740  -60.5950   -1.7670 N   0  0  0  0  0  0  0  0  0  0  0  0
  -24.8020  -59.3120   -1.4260 C   0  0  0  0  0  0  0  0  0  0  0  0
  -24.1120  -59.0940   -0.2410 C   0  0  0  0  0  0  0  0  0  0  0  0
  -23.6020  -57.8410    0.0490 C   0  0  0  0  0  0  0  0  0  0  0  0
  -24.9990  -58.2510   -2.3030 C   0  0  0  0  0  0  0  0  0  0  0  0
  -24.4890  -57.0010   -2.0130 C   0  0  0  0  0  0  0  0  0  0  0  0
  -23.7750  -56.8000   -0.8490 C   0  0  0  0  0  0  0  0  0  0  0  0
  -23.1450  -55.6120   -0.5890 O   0  0  0  0  0  0  0  0  0  0  0  0
  -23.6150  -54.4280   -1.2390 C   0  0  0  0  0  0  0  0  0  0  0  0
 13 12  1  0
 12 11  1  0
 11  8  2  0
  8  7  1  0
  7  6  2  0
  6  5  1  0
  5  2  1  0
  2  1  2  0
  3  2  1  0
  4  3  1  0
  9  6  1  0
 10  9  2  0
 11 10  1  0
M  END
>  <id>  (2) 
96

>  <inchikey>  (2) 
MAVJTZKUNOKGPF-UHFFFAOYSA-N

>  <alias>  (2) 
z0184a

>  <smiles>  (2) 
COc1ccc(NC(=O)CN)cc1

>  <path>  (2) 
/opt/xchem-fragalysis-2/maxwin/BulkDock/TARGETS/Flavi_NS5_RdRp/aligned_files/z0184a/z0184a.pdb

>  <distance_score>  (2) 
None

>  <energy_score>  (2) 
None

>  <compound>  (2) 
MAVJTZKUNOKGPF-UHFFFAOYSA-N

>  <compound_id>  (2) 
75

>  <target>  (2) 
Flavi_NS5_RdRp

$$$$
