z0309a
     RDKit          3D

 14 14  0  0  0  0  0  0  0  0999 V2000
  -23.6540  -31.1630  -17.6210 O   0  0  0  0  0  0  0  0  0  0  0  0
  -24.2050  -31.3870  -18.6950 C   0  0  0  0  0  0  0  0  0  0  0  0
  -23.5280  -32.2260  -19.7870 C   0  0  0  0  0  0  0  0  0  0  0  0
  -22.9580  -33.4130  -19.1580 N   0  0  0  0  0  0  0  0  0  0  0  0
  -25.4280  -30.9280  -19.0280 N   0  0  0  0  0  0  0  0  0  0  0  0
  -26.4500  -30.4840  -18.1640 C   0  0  0  0  0  0  0  0  0  0  0  0
  -27.5480  -29.8970  -18.7640 C   0  0  0  0  0  0  0  0  0  0  0  0
  -27.4150  -29.6780  -20.1030 O   0  0  0  0  0  0  0  0  0  0  0  0
  -28.0880  -30.5600  -20.9790 C   0  0  0  0  0  0  0  0  0  0  0  0
  -26.4280  -30.6370  -16.7850 C   0  0  0  0  0  0  0  0  0  0  0  0
  -27.5020  -30.2330  -16.0070 C   0  0  0  0  0  0  0  0  0  0  0  0
  -27.4680  -30.3860  -14.5070 C   0  0  0  0  0  0  0  0  0  0  0  0
  -28.6030  -29.6790  -16.6400 C   0  0  0  0  0  0  0  0  0  0  0  0
  -28.6380  -29.5060  -18.0110 C   0  0  0  0  0  0  0  0  0  0  0  0
  9  8  1  0
  8  7  1  0
  7 14  2  0
 14 13  1  0
 13 11  2  0
 12 11  1  0
 11 10  1  0
 10  6  2  0
  7  6  1  0
  6  5  1  0
  5  2  1  0
  2  1  2  0
  3  2  1  0
  4  3  1  0
M  END
>  <id>  (1) 
113

>  <inchikey>  (1) 
SRFLDWOWAGQZAD-UHFFFAOYSA-N

>  <alias>  (1) 
z0309a

>  <smiles>  (1) 
COc1ccc(C)cc1NC(=O)CN

>  <path>  (1) 
/opt/xchem-fragalysis-2/maxwin/BulkDock/TARGETS/Flavi_NS5_RdRp/aligned_files/z0309a/z0309a.pdb

>  <distance_score>  (1) 
None

>  <energy_score>  (1) 
None

>  <compound>  (1) 
SRFLDWOWAGQZAD-UHFFFAOYSA-N

>  <compound_id>  (1) 
88

>  <target>  (1) 
Flavi_NS5_RdRp

$$$$
z1018a
     RDKit          3D

 18 19  0  0  0  0  0  0  0  0999 V2000
  -24.6370  -32.9720  -24.2020 O   0  0  0  0  0  0  0  0  0  0  0  0
  -23.4380  -33.0890  -24.0000 C   0  0  0  0  0  0  0  0  0  0  0  0
  -22.4420  -33.7780  -24.8910 C   0  0  0  0  0  0  0  0  0  0  0  0
  -21.0850  -33.4100  -24.3100 C   0  0  0  0  0  0  0  0  0  0  0  0
  -21.3630  -32.9570  -22.8880 C   0  0  0  0  0  0  0  0  0  0  0  0
  -22.7850  -32.6050  -22.9240 N   0  0  0  0  0  0  0  0  0  0  0  0
  -23.4200  -31.7770  -21.8880 C   0  0  0  0  0  0  0  0  0  0  0  0
  -24.3470  -32.5530  -20.9610 C   0  0  0  0  0  0  0  0  0  0  0  0
  -25.4880  -31.7690  -20.4960 N   0  0  0  0  0  0  0  0  0  0  0  0
  -26.3340  -31.1610  -21.3620 C   0  0  0  0  0  0  0  0  0  0  0  0
  -26.1830  -31.2570  -22.5750 O   0  0  0  0  0  0  0  0  0  0  0  0
  -27.3860  -30.4590  -20.8200 N   0  0  0  0  0  0  0  0  0  0  0  0
  -27.8020  -30.2930  -19.4750 C   0  0  0  0  0  0  0  0  0  0  0  0
  -26.9510  -30.0480  -18.4030 C   0  0  0  0  0  0  0  0  0  0  0  0
  -27.4770  -29.8290  -17.1390 C   0  0  0  0  0  0  0  0  0  0  0  0
  -28.8380  -29.8380  -16.9390 C   0  0  0  0  0  0  0  0  0  0  0  0
  -29.6850  -30.0770  -17.9990 C   0  0  0  0  0  0  0  0  0  0  0  0
  -29.1740  -30.3100  -19.2640 C   0  0  0  0  0  0  0  0  0  0  0  0
 11 10  2  0
 10  9  1  0
  9  8  1  0
  8  7  1  0
  7  6  1  0
  6  5  1  0
  5  4  1  0
  4  3  1  0
  3  2  1  0
  6  2  1  0
  2  1  2  0
 12 10  1  0
 13 12  1  0
 13 18  2  0
 18 17  1  0
 17 16  2  0
 16 15  1  0
 15 14  2  0
 14 13  1  0
M  END
>  <id>  (2) 
206

>  <inchikey>  (2) 
OYRHWZOYGOUXNC-UHFFFAOYSA-N

>  <alias>  (2) 
z1018a

>  <smiles>  (2) 
O=C(NCCN1CCCC1=O)Nc1ccccc1

>  <path>  (2) 
/opt/xchem-fragalysis-2/maxwin/BulkDock/TARGETS/Flavi_NS5_RdRp/aligned_files/z1018a/z1018a.pdb

>  <distance_score>  (2) 
None

>  <energy_score>  (2) 
None

>  <compound>  (2) 
OYRHWZOYGOUXNC-UHFFFAOYSA-N

>  <compound_id>  (2) 
144

>  <target>  (2) 
Flavi_NS5_RdRp

$$$$
