d0162a
     RDKit          3D

 16 17  0  0  0  0  0  0  0  0999 V2000
   -8.6690  -71.5540  -20.9660 O   0  0  0  0  0  0  0  0  0  0  0  0
   -8.7100  -71.6110  -19.7430 C   0  0  0  0  0  0  0  0  0  0  0  0
   -9.9510  -71.2810  -18.9720 C   0  0  0  0  0  0  0  0  0  0  0  0
   -7.6500  -71.9740  -18.9890 N   0  0  0  0  0  0  0  0  0  0  0  0
   -6.2970  -71.6140  -19.1690 C   0  0  0  0  0  0  0  0  0  0  0  0
   -5.9630  -70.4710  -19.8830 C   0  0  0  0  0  0  0  0  0  0  0  0
   -4.6370  -70.1450  -20.0980 C   0  0  0  0  0  0  0  0  0  0  0  0
   -3.6180  -70.9510  -19.6040 C   0  0  0  0  0  0  0  0  0  0  0  0
   -3.9600  -72.0870  -18.8780 C   0  0  0  0  0  0  0  0  0  0  0  0
   -5.2850  -72.4160  -18.6610 C   0  0  0  0  0  0  0  0  0  0  0  0
   -2.2070  -70.6210  -19.8600 C   0  0  0  0  0  0  0  0  0  0  0  0
   -1.8620  -69.3230  -20.2220 N   0  0  0  0  0  0  0  0  0  0  0  0
   -0.5650  -69.2210  -20.4000 C   0  0  0  0  0  0  0  0  0  0  0  0
    0.0610  -68.0930  -20.7410 N   0  0  0  0  0  0  0  0  0  0  0  0
    0.3220  -70.7010  -20.1440 S   0  0  0  0  0  0  0  0  0  0  0  0
   -1.1590  -71.4820  -19.7750 C   0  0  0  0  0  0  0  0  0  0  0  0
  3  2  1  0
  2  1  2  0
  4  2  1  0
  5  4  1  0
  5 10  2  0
 10  9  1  0
  9  8  2  0
  8  7  1  0
  7  6  2  0
  6  5  1  0
 11  8  1  0
 11 16  2  0
 16 15  1  0
 15 13  1  0
 14 13  1  0
 13 12  2  0
 12 11  1  0
M  END
>  <id>  (1) 
15

>  <inchikey>  (1) 
VBBNSESFUHRMJU-UHFFFAOYSA-N

>  <alias>  (1) 
d0162a

>  <smiles>  (1) 
CC(=O)Nc1ccc(-c2csc(N)n2)cc1

>  <path>  (1) 
/opt/xchem-fragalysis-2/maxwin/BulkDock/TARGETS/Flavi_NS5_RdRp/aligned_files/d0162a/d0162a.pdb

>  <distance_score>  (1) 
None

>  <energy_score>  (1) 
None

>  <compound>  (1) 
VBBNSESFUHRMJU-UHFFFAOYSA-N

>  <compound_id>  (1) 
12

>  <target>  (1) 
Flavi_NS5_RdRp

$$$$
5hmx-a
     RDKit          3D

 19 20  0  0  0  0  0  0  0  0999 V2000
  -12.3830  -70.5700  -24.6750 C   0  0  0  0  0  0  0  0  0  0  0  0
  -12.5120  -70.0490  -23.2590 C   0  0  0  0  0  0  0  0  0  0  0  0
  -13.6120  -69.2820  -22.8880 C   0  0  0  0  0  0  0  0  0  0  0  0
  -10.5320  -69.1980  -25.1610 O   0  0  0  0  0  0  0  0  0  0  0  0
  -16.8220  -69.4320  -20.4140 O   0  0  0  0  0  0  0  0  0  0  0  0
  -15.3850  -68.6800  -18.8830 O   0  0  0  0  0  0  0  0  0  0  0  0
   -9.7920  -70.9670  -17.8680 C   0  0  0  0  0  0  0  0  0  0  0  0
   -8.7320  -71.0930  -18.6920 C   0  0  0  0  0  0  0  0  0  0  0  0
  -11.5640  -70.3830  -22.2930 C   0  0  0  0  0  0  0  0  0  0  0  0
  -11.6630  -69.6480  -25.6240 C   0  0  0  0  0  0  0  0  0  0  0  0
  -12.0880  -69.3700  -26.7250 O   0  0  0  0  0  0  0  0  0  0  0  0
  -11.7220  -69.9670  -20.9710 C   0  0  0  0  0  0  0  0  0  0  0  0
  -12.8300  -69.2000  -20.6230 C   0  0  0  0  0  0  0  0  0  0  0  0
  -13.7870  -68.8600  -21.5730 C   0  0  0  0  0  0  0  0  0  0  0  0
  -15.0260  -68.0900  -21.1710 C   0  0  0  0  0  0  0  0  0  0  0  0
  -15.7640  -68.7470  -20.0350 C   0  0  0  0  0  0  0  0  0  0  0  0
  -10.7500  -70.3720  -19.9400 C   0  0  0  0  0  0  0  0  0  0  0  0
  -10.9670  -70.5520  -18.5640 C   0  0  0  0  0  0  0  0  0  0  0  0
   -9.1140  -70.7110  -20.3240 S   0  0  0  0  0  0  0  0  0  0  0  0
  7  8  2  0
  7 18  1  0
  8 19  1  0
 18 17  2  0
 19 17  1  0
 17 12  1  0
 12 13  2  0
 12  9  1  0
 13 14  1  0
  9  2  2  0
 14 15  1  0
 14  3  2  0
  2  3  1  0
  2  1  1  0
 15 16  1  0
 16  5  2  0
 16  6  1  0
  1 10  1  0
 11 10  2  0
 10  4  1  0
M  END
>  <id>  (2) 
224

>  <inchikey>  (2) 
KZPRFEGRESQBAV-UHFFFAOYSA-N

>  <alias>  (2) 
5hmx-a

>  <smiles>  (2) 
O=C(O)Cc1cc(CC(=O)O)cc(-c2cccs2)c1

>  <path>  (2) 
/opt/xchem-fragalysis-2/maxwin/BulkDock/TARGETS/Flavi_NS5_RdRp/aligned_files/5hmx-a/5hmx-a.pdb

>  <distance_score>  (2) 
None

>  <energy_score>  (2) 
None

>  <compound>  (2) 
KZPRFEGRESQBAV-UHFFFAOYSA-N

>  <compound_id>  (2) 
158

>  <target>  (2) 
Flavi_NS5_RdRp

$$$$
