z0052a
     RDKit          3D

  9  9  0  0  0  0  0  0  0  0999 V2000
  -13.3610  -44.9210  -19.5190 O   0  0  0  0  0  0  0  0  0  0  0  0
  -12.8310  -43.9430  -18.6400 C   0  0  0  0  0  0  0  0  0  0  0  0
  -12.6710  -44.5370  -17.2640 C   0  0  0  0  0  0  0  0  0  0  0  0
  -13.9340  -44.6010  -16.5190 N   0  0  0  0  0  0  0  0  0  0  0  0
  -14.3430  -45.9990  -16.3670 C   0  0  0  0  0  0  0  0  0  0  0  0
  -15.5270  -46.1080  -15.4510 C   0  0  0  0  0  0  0  0  0  0  0  0
  -15.2540  -45.5610  -14.1740 O   0  0  0  0  0  0  0  0  0  0  0  0
  -14.9660  -44.1820  -14.3290 C   0  0  0  0  0  0  0  0  0  0  0  0
  -13.7590  -43.9640  -15.2030 C   0  0  0  0  0  0  0  0  0  0  0  0
  2  1  1  0
  3  2  1  0
  4  3  1  0
  4  9  1  0
  9  8  1  0
  8  7  1  0
  7  6  1  0
  6  5  1  0
  5  4  1  0
M  END
>  <id>  (1) 
83

>  <inchikey>  (1) 
KKFDCBRMNNSAAW-UHFFFAOYSA-N

>  <alias>  (1) 
z0052a

>  <smiles>  (1) 
OCCN1CCOCC1

>  <path>  (1) 
/opt/xchem-fragalysis-2/maxwin/BulkDock/TARGETS/Flavi_NS5_RdRp/aligned_files/z0052a/z0052a.pdb

>  <distance_score>  (1) 
None

>  <energy_score>  (1) 
None

>  <compound>  (1) 
KKFDCBRMNNSAAW-UHFFFAOYSA-N

>  <compound_id>  (1) 
69

>  <target>  (1) 
Flavi_NS5_RdRp

$$$$
z0103a
     RDKit          3D

 10 10  0  0  0  0  0  0  0  0999 V2000
  -13.2660  -42.1970  -21.9740 O   0  0  0  0  0  0  0  0  0  0  0  0
  -12.9440  -41.0220  -21.8330 C   0  0  0  0  0  0  0  0  0  0  0  0
  -11.6290  -40.6240  -21.2250 C   0  0  0  0  0  0  0  0  0  0  0  0
  -13.7260  -40.0340  -22.2480 N   0  0  0  0  0  0  0  0  0  0  0  0
  -13.3480  -39.2220  -23.3820 C   0  0  0  0  0  0  0  0  0  0  0  0
  -12.9660  -37.9070  -22.9250 C   0  0  0  0  0  0  0  0  0  0  0  0
  -13.8180  -37.0350  -22.4210 N   0  0  0  0  0  0  0  0  0  0  0  0
  -13.1010  -35.9420  -22.0180 C   0  0  0  0  0  0  0  0  0  0  0  0
  -11.8370  -36.2110  -22.2990 C   0  0  0  0  0  0  0  0  0  0  0  0
  -11.7410  -37.4580  -22.8790 N   0  0  0  0  0  0  0  0  0  0  0  0
  3  2  1  0
  2  1  2  0
  4  2  1  0
  5  4  1  0
  6  5  1  0
  6 10  2  0
 10  9  1  0
  9  8  2  0
  8  7  1  0
  7  6  1  0
M  END
>  <id>  (2) 
84

>  <inchikey>  (2) 
SXKAQLCLHGQXHB-UHFFFAOYSA-N

>  <alias>  (2) 
z0103a

>  <smiles>  (2) 
CC(=O)NCc1ncc[nH]1

>  <path>  (2) 
/opt/xchem-fragalysis-2/maxwin/BulkDock/TARGETS/Flavi_NS5_RdRp/aligned_files/z0103a/z0103a.pdb

>  <distance_score>  (2) 
None

>  <energy_score>  (2) 
None

>  <compound>  (2) 
SXKAQLCLHGQXHB-UHFFFAOYSA-N

>  <compound_id>  (2) 
70

>  <target>  (2) 
Flavi_NS5_RdRp

$$$$
5hmy-a
     RDKit          3D

 23 24  0  0  0  0  0  0  0  0999 V2000
  -13.6900  -42.0740  -20.9510 C   0  0  0  0  0  0  0  0  0  0  0  0
  -14.6530  -43.0350  -20.2960 C   0  0  0  0  0  0  0  0  0  0  0  0
  -14.5710  -43.2350  -18.9200 C   0  0  0  0  0  0  0  0  0  0  0  0
  -15.1740  -40.2190  -21.2790 O   0  0  0  0  0  0  0  0  0  0  0  0
  -16.2150  -43.7690  -14.7030 O   0  0  0  0  0  0  0  0  0  0  0  0
  -17.0570  -42.7860  -16.4280 O   0  0  0  0  0  0  0  0  0  0  0  0
  -18.7640  -47.2690  -22.0220 C   0  0  0  0  0  0  0  0  0  0  0  0
  -18.9910  -46.2940  -22.9790 C   0  0  0  0  0  0  0  0  0  0  0  0
  -19.6580  -46.4820  -24.1200 C   0  0  0  0  0  0  0  0  0  0  0  0
  -20.1480  -46.5920  -25.1880 C   0  0  0  0  0  0  0  0  0  0  0  0
  -20.6510  -46.6680  -26.5650 C   0  0  0  0  0  0  0  0  0  0  0  0
  -15.5780  -43.7690  -21.0610 C   0  0  0  0  0  0  0  0  0  0  0  0
  -13.2980  -39.8380  -20.2840 O   0  0  0  0  0  0  0  0  0  0  0  0
  -14.0910  -40.6190  -20.8240 C   0  0  0  0  0  0  0  0  0  0  0  0
  -16.4850  -44.6440  -20.4290 C   0  0  0  0  0  0  0  0  0  0  0  0
  -16.3730  -44.8490  -19.0450 C   0  0  0  0  0  0  0  0  0  0  0  0
  -15.4460  -44.1200  -18.2860 C   0  0  0  0  0  0  0  0  0  0  0  0
  -15.2920  -44.3830  -16.7970 C   0  0  0  0  0  0  0  0  0  0  0  0
  -16.2540  -43.5930  -15.9320 C   0  0  0  0  0  0  0  0  0  0  0  0
  -17.4520  -45.4860  -21.2070 C   0  0  0  0  0  0  0  0  0  0  0  0
  -17.9160  -46.7970  -21.0040 C   0  0  0  0  0  0  0  0  0  0  0  0
  -18.0680  -44.8760  -22.7170 S   0  0  0  0  0  0  0  0  0  0  0  0
  -22.0000  -46.2280  -26.6080 O   0  0  0  0  0  0  0  0  0  0  0  0
 23 11  1  0
 11 10  1  0
 10  9  3  0
  9  8  1  0
  7  8  2  0
  7 21  1  0
  8 22  1  0
 21 20  2  0
 22 20  1  0
 20 15  1  0
 15 16  2  0
 15 12  1  0
 16 17  1  0
 12  2  2  0
 17 18  1  0
 17  3  2  0
  2  3  1  0
  2  1  1  0
 18 19  1  0
  6 19  2  0
 19  5  1  0
  1 14  1  0
  4 14  2  0
 14 13  1  0
M  END
>  <id>  (3) 
216

>  <inchikey>  (3) 
GUHLJLFVRKYNRL-UHFFFAOYSA-N

>  <alias>  (3) 
5hmy-a

>  <smiles>  (3) 
O=C(O)Cc1cc(CC(=O)O)cc(-c2ccc(C#CCO)s2)c1

>  <path>  (3) 
/opt/xchem-fragalysis-2/maxwin/BulkDock/TARGETS/Flavi_NS5_RdRp/aligned_files/5hmy-a/5hmy-a.pdb

>  <distance_score>  (3) 
None

>  <energy_score>  (3) 
None

>  <compound>  (3) 
GUHLJLFVRKYNRL-UHFFFAOYSA-N

>  <compound_id>  (3) 
153

>  <target>  (3) 
Flavi_NS5_RdRp

$$$$
5i3q-a
     RDKit          3D

 34 37  0  0  0  0  0  0  0  0999 V2000
  -15.4510  -43.8150  -21.4860 C   0  0  0  0  0  0  0  0  0  0  0  0
  -14.5060  -43.1070  -20.7500 C   0  0  0  0  0  0  0  0  0  0  0  0
  -14.5350  -43.0860  -19.3580 C   0  0  0  0  0  0  0  0  0  0  0  0
  -22.2920  -46.1700  -26.7340 O   0  0  0  0  0  0  0  0  0  0  0  0
  -16.6900  -43.3130  -16.6750 O   0  0  0  0  0  0  0  0  0  0  0  0
  -16.0670  -44.7310  -14.4590 O   0  0  0  0  0  0  0  0  0  0  0  0
  -19.0000  -46.3750  -23.2190 C   0  0  0  0  0  0  0  0  0  0  0  0
  -19.7790  -46.6010  -24.3820 C   0  0  0  0  0  0  0  0  0  0  0  0
  -20.3740  -46.6640  -25.4130 C   0  0  0  0  0  0  0  0  0  0  0  0
  -21.0600  -46.8430  -26.6950 C   0  0  0  0  0  0  0  0  0  0  0  0
  -15.6940  -43.7870  -17.2240 C   0  0  0  0  0  0  0  0  0  0  0  0
  -14.1580  -42.9560  -14.3340 C   0  0  0  0  0  0  0  0  0  0  0  0
  -15.0370  -42.1960  -13.6110 C   0  0  0  0  0  0  0  0  0  0  0  0
  -14.6800  -40.9230  -13.1920 C   0  0  0  0  0  0  0  0  0  0  0  0
  -13.4920  -40.3730  -13.5760 C   0  0  0  0  0  0  0  0  0  0  0  0
  -12.5550  -41.1220  -14.3370 C   0  0  0  0  0  0  0  0  0  0  0  0
  -11.3020  -40.6230  -14.7710 C   0  0  0  0  0  0  0  0  0  0  0  0
  -10.4700  -41.4120  -15.5120 C   0  0  0  0  0  0  0  0  0  0  0  0
  -10.9050  -42.6810  -15.8820 C   0  0  0  0  0  0  0  0  0  0  0  0
  -12.9010  -42.4330  -14.7560 C   0  0  0  0  0  0  0  0  0  0  0  0
  -13.7240  -45.5310  -14.5520 O   0  0  0  0  0  0  0  0  0  0  0  0
  -14.7120  -44.5500  -14.8810 S   0  0  0  0  0  0  0  0  0  0  0  0
  -12.0620  -43.2120  -15.5060 N   0  0  0  0  0  0  0  0  0  0  0  0
  -14.6780  -44.3800  -16.4980 N   0  0  0  0  0  0  0  0  0  0  0  0
  -15.5470  -43.8150  -18.7070 C   0  0  0  0  0  0  0  0  0  0  0  0
  -13.4940  -42.2820  -18.6180 C   0  0  0  0  0  0  0  0  0  0  0  0
  -16.4700  -44.5490  -19.4530 C   0  0  0  0  0  0  0  0  0  0  0  0
  -16.4420  -44.5680  -20.8410 C   0  0  0  0  0  0  0  0  0  0  0  0
  -15.4450  -43.8890  -22.8530 O   0  0  0  0  0  0  0  0  0  0  0  0
  -14.5160  -43.0670  -23.5740 C   0  0  0  0  0  0  0  0  0  0  0  0
  -17.4240  -45.4050  -21.5610 C   0  0  0  0  0  0  0  0  0  0  0  0
  -18.0460  -44.9420  -23.1100 S   0  0  0  0  0  0  0  0  0  0  0  0
  -18.8280  -47.1670  -22.1260 C   0  0  0  0  0  0  0  0  0  0  0  0
  -17.9540  -46.6080  -21.1720 C   0  0  0  0  0  0  0  0  0  0  0  0
  4 10  1  0
 10  9  1  0
  9  8  3  0
  8  7  1  0
  7 33  2  0
  7 32  1  0
 33 34  1  0
 34 31  2  0
 32 31  1  0
 31 28  1  0
 28 27  1  0
 28  1  2  0
 29  1  1  0
 29 30  1  0
 27 25  2  0
  1  2  1  0
 25 11  1  0
 25  3  1  0
  2  3  2  0
  5 11  2  0
 11 24  1  0
  3 26  1  0
  6 22  2  0
 24 22  1  0
 22 21  2  0
 22 12  1  0
 12 13  2  0
 12 20  1  0
 13 14  1  0
 23 20  2  0
 23 19  1  0
 20 16  1  0
 14 15  2  0
 19 18  2  0
 16 15  1  0
 16 17  2  0
 18 17  1  0
M  END
>  <id>  (4) 
221

>  <inchikey>  (4) 
IGHQXATTWZGDIH-UHFFFAOYSA-N

>  <alias>  (4) 
5i3q-a

>  <smiles>  (4) 
COc1cc(C)c(C(=O)NS(=O)(=O)c2cccc3cccnc23)cc1-c1ccc(C#CCO)s1

>  <path>  (4) 
/opt/xchem-fragalysis-2/maxwin/BulkDock/TARGETS/Flavi_NS5_RdRp/aligned_files/5i3q-a/5i3q-a.pdb

>  <distance_score>  (4) 
None

>  <energy_score>  (4) 
None

>  <compound>  (4) 
IGHQXATTWZGDIH-UHFFFAOYSA-N

>  <compound_id>  (4) 
156

>  <target>  (4) 
Flavi_NS5_RdRp

$$$$
5hmx-b
     RDKit          3D

 19 20  0  0  0  0  0  0  0  0999 V2000
  -13.7220  -42.2280  -21.1420 C   0  0  0  0  0  0  0  0  0  0  0  0
  -14.6490  -43.1950  -20.4470 C   0  0  0  0  0  0  0  0  0  0  0  0
  -14.5900  -43.3600  -19.0690 C   0  0  0  0  0  0  0  0  0  0  0  0
  -12.9970  -40.1580  -20.3220 O   0  0  0  0  0  0  0  0  0  0  0  0
  -16.9040  -43.6820  -15.1320 O   0  0  0  0  0  0  0  0  0  0  0  0
  -16.9120  -42.3650  -16.9220 O   0  0  0  0  0  0  0  0  0  0  0  0
  -18.8710  -47.2120  -22.1000 C   0  0  0  0  0  0  0  0  0  0  0  0
  -19.0990  -46.2700  -23.0200 C   0  0  0  0  0  0  0  0  0  0  0  0
  -15.5800  -43.9300  -21.1770 C   0  0  0  0  0  0  0  0  0  0  0  0
  -14.0110  -40.7830  -20.8460 C   0  0  0  0  0  0  0  0  0  0  0  0
  -15.0750  -40.2540  -21.0900 O   0  0  0  0  0  0  0  0  0  0  0  0
  -16.4580  -44.8000  -20.5370 C   0  0  0  0  0  0  0  0  0  0  0  0
  -16.3910  -44.9430  -19.1510 C   0  0  0  0  0  0  0  0  0  0  0  0
  -15.4580  -44.2190  -18.4080 C   0  0  0  0  0  0  0  0  0  0  0  0
  -15.4650  -44.2820  -16.8980 C   0  0  0  0  0  0  0  0  0  0  0  0
  -16.4910  -43.3410  -16.3220 C   0  0  0  0  0  0  0  0  0  0  0  0
  -17.4660  -45.5450  -21.3140 C   0  0  0  0  0  0  0  0  0  0  0  0
  -17.9330  -46.8150  -21.1030 C   0  0  0  0  0  0  0  0  0  0  0  0
  -18.2010  -44.8710  -22.7170 S   0  0  0  0  0  0  0  0  0  0  0  0
  7  8  2  0
  7 18  1  0
  8 19  1  0
 18 17  2  0
 19 17  1  0
 17 12  1  0
 12 13  2  0
 12  9  1  0
 13 14  1  0
  9  2  2  0
 14 15  1  0
 14  3  2  0
  2  3  1  0
  2  1  1  0
 15 16  1  0
 16  5  2  0
 16  6  1  0
  1 10  1  0
 11 10  2  0
 10  4  1  0
M  END
>  <id>  (5) 
223

>  <inchikey>  (5) 
KZPRFEGRESQBAV-UHFFFAOYSA-N

>  <alias>  (5) 
5hmx-b

>  <smiles>  (5) 
O=C(O)Cc1cc(CC(=O)O)cc(-c2cccs2)c1

>  <path>  (5) 
/opt/xchem-fragalysis-2/maxwin/BulkDock/TARGETS/Flavi_NS5_RdRp/aligned_files/5hmx-b/5hmx-b.pdb

>  <distance_score>  (5) 
None

>  <energy_score>  (5) 
None

>  <compound>  (5) 
KZPRFEGRESQBAV-UHFFFAOYSA-N

>  <compound_id>  (5) 
158

>  <target>  (5) 
Flavi_NS5_RdRp

$$$$
5k5m-a
     RDKit          3D

 33 35  0  0  0  0  0  0  0  0999 V2000
  -14.8580  -43.9260  -21.4080 C   0  0  0  0  0  0  0  0  0  0  0  0
  -13.9290  -43.2280  -20.6590 C   0  0  0  0  0  0  0  0  0  0  0  0
  -13.9520  -43.2730  -19.2780 C   0  0  0  0  0  0  0  0  0  0  0  0
  -13.0590  -42.6100  -18.4790 O   0  0  0  0  0  0  0  0  0  0  0  0
  -17.7140  -42.2960  -15.0130 O   0  0  0  0  0  0  0  0  0  0  0  0
  -12.8650  -39.4700  -15.4270 O   0  0  0  0  0  0  0  0  0  0  0  0
  -13.0470  -40.6900  -13.5060 C   0  0  0  0  0  0  0  0  0  0  0  0
  -13.6190  -41.6720  -12.7070 C   0  0  0  0  0  0  0  0  0  0  0  0
  -14.7000  -42.4170  -13.1580 C   0  0  0  0  0  0  0  0  0  0  0  0
  -15.8630  -44.7240  -19.3760 C   0  0  0  0  0  0  0  0  0  0  0  0
  -15.8550  -44.6900  -20.7770 C   0  0  0  0  0  0  0  0  0  0  0  0
  -16.8860  -45.4380  -21.5260 C   0  0  0  0  0  0  0  0  0  0  0  0
  -17.4820  -46.6370  -21.1590 C   0  0  0  0  0  0  0  0  0  0  0  0
  -18.3590  -47.1370  -22.1260 C   0  0  0  0  0  0  0  0  0  0  0  0
  -18.4690  -46.3200  -23.2350 C   0  0  0  0  0  0  0  0  0  0  0  0
  -19.2110  -46.5040  -24.4290 C   0  0  0  0  0  0  0  0  0  0  0  0
  -19.7910  -46.6140  -25.4640 C   0  0  0  0  0  0  0  0  0  0  0  0
  -20.5840  -46.8720  -26.6660 C   0  0  0  0  0  0  0  0  0  0  0  0
  -14.2290  -44.4290  -16.3550 O   0  0  0  0  0  0  0  0  0  0  0  0
  -15.1100  -44.0300  -17.1160 C   0  0  0  0  0  0  0  0  0  0  0  0
  -16.2460  -43.4040  -16.6350 N   0  0  0  0  0  0  0  0  0  0  0  0
  -16.5520  -43.1300  -15.0390 S   0  0  0  0  0  0  0  0  0  0  0  0
  -16.5620  -44.3840  -14.3500 O   0  0  0  0  0  0  0  0  0  0  0  0
  -15.1980  -42.1770  -14.4300 C   0  0  0  0  0  0  0  0  0  0  0  0
  -13.5670  -40.4490  -14.7680 C   0  0  0  0  0  0  0  0  0  0  0  0
  -13.2920  -39.0810  -16.7360 C   0  0  0  0  0  0  0  0  0  0  0  0
  -14.6500  -41.1880  -15.2310 C   0  0  0  0  0  0  0  0  0  0  0  0
  -14.9290  -44.0160  -18.6070 C   0  0  0  0  0  0  0  0  0  0  0  0
  -12.1900  -41.6430  -19.0820 C   0  0  0  0  0  0  0  0  0  0  0  0
  -14.8550  -43.9500  -22.7790 O   0  0  0  0  0  0  0  0  0  0  0  0
  -13.8140  -43.2580  -23.4550 C   0  0  0  0  0  0  0  0  0  0  0  0
  -17.4720  -44.9230  -23.0810 S   0  0  0  0  0  0  0  0  0  0  0  0
  -21.7170  -46.0320  -26.7280 O   0  0  0  0  0  0  0  0  0  0  0  0
 18 33  1  0
 18 17  1  0
 17 16  3  0
 16 15  1  0
 15 14  2  0
 15 32  1  0
 14 13  1  0
 13 12  2  0
 32 12  1  0
 12 11  1  0
 11 10  1  0
 11  1  2  0
 30  1  1  0
 30 31  1  0
 10 28  2  0
  1  2  1  0
 28 20  1  0
 28  3  1  0
  2  3  2  0
 21 20  1  0
 21 22  1  0
 20 19  2  0
  5 22  2  0
 23 22  2  0
  3  4  1  0
 22 24  1  0
  4 29  1  0
 24 27  2  0
 24  9  1  0
 27 25  1  0
  9  8  2  0
 26  6  1  0
 25  6  1  0
 25  7  2  0
  8  7  1  0
M  END
>  <id>  (6) 
225

>  <inchikey>  (6) 
GFHHFWCGCHIDBF-UHFFFAOYSA-N

>  <alias>  (6) 
5k5m-a

>  <smiles>  (6) 
COc1cccc(S(=O)(=O)NC(=O)c2cc(-c3ccc(C#CCO)s3)c(OC)cc2OC)c1

>  <path>  (6) 
/opt/xchem-fragalysis-2/maxwin/BulkDock/TARGETS/Flavi_NS5_RdRp/aligned_files/5k5m-a/5k5m-a.pdb

>  <distance_score>  (6) 
None

>  <energy_score>  (6) 
None

>  <compound>  (6) 
GFHHFWCGCHIDBF-UHFFFAOYSA-N

>  <compound_id>  (6) 
149

>  <target>  (6) 
Flavi_NS5_RdRp

$$$$
