5hmy-a
     RDKit          3D

 23 24  0  0  0  0  0  0  0  0999 V2000
  -13.6900  -42.0740  -20.9510 C   0  0  0  0  0  0  0  0  0  0  0  0
  -14.6530  -43.0350  -20.2960 C   0  0  0  0  0  0  0  0  0  0  0  0
  -14.5710  -43.2350  -18.9200 C   0  0  0  0  0  0  0  0  0  0  0  0
  -15.1740  -40.2190  -21.2790 O   0  0  0  0  0  0  0  0  0  0  0  0
  -16.2150  -43.7690  -14.7030 O   0  0  0  0  0  0  0  0  0  0  0  0
  -17.0570  -42.7860  -16.4280 O   0  0  0  0  0  0  0  0  0  0  0  0
  -18.7640  -47.2690  -22.0220 C   0  0  0  0  0  0  0  0  0  0  0  0
  -18.9910  -46.2940  -22.9790 C   0  0  0  0  0  0  0  0  0  0  0  0
  -19.6580  -46.4820  -24.1200 C   0  0  0  0  0  0  0  0  0  0  0  0
  -20.1480  -46.5920  -25.1880 C   0  0  0  0  0  0  0  0  0  0  0  0
  -20.6510  -46.6680  -26.5650 C   0  0  0  0  0  0  0  0  0  0  0  0
  -15.5780  -43.7690  -21.0610 C   0  0  0  0  0  0  0  0  0  0  0  0
  -13.2980  -39.8380  -20.2840 O   0  0  0  0  0  0  0  0  0  0  0  0
  -14.0910  -40.6190  -20.8240 C   0  0  0  0  0  0  0  0  0  0  0  0
  -16.4850  -44.6440  -20.4290 C   0  0  0  0  0  0  0  0  0  0  0  0
  -16.3730  -44.8490  -19.0450 C   0  0  0  0  0  0  0  0  0  0  0  0
  -15.4460  -44.1200  -18.2860 C   0  0  0  0  0  0  0  0  0  0  0  0
  -15.2920  -44.3830  -16.7970 C   0  0  0  0  0  0  0  0  0  0  0  0
  -16.2540  -43.5930  -15.9320 C   0  0  0  0  0  0  0  0  0  0  0  0
  -17.4520  -45.4860  -21.2070 C   0  0  0  0  0  0  0  0  0  0  0  0
  -17.9160  -46.7970  -21.0040 C   0  0  0  0  0  0  0  0  0  0  0  0
  -18.0680  -44.8760  -22.7170 S   0  0  0  0  0  0  0  0  0  0  0  0
  -22.0000  -46.2280  -26.6080 O   0  0  0  0  0  0  0  0  0  0  0  0
 23 11  1  0
 11 10  1  0
 10  9  3  0
  9  8  1  0
  7  8  2  0
  7 21  1  0
  8 22  1  0
 21 20  2  0
 22 20  1  0
 20 15  1  0
 15 16  2  0
 15 12  1  0
 16 17  1  0
 12  2  2  0
 17 18  1  0
 17  3  2  0
  2  3  1  0
  2  1  1  0
 18 19  1  0
  6 19  2  0
 19  5  1  0
  1 14  1  0
  4 14  2  0
 14 13  1  0
M  END
>  <id>  (1) 
216

>  <inchikey>  (1) 
GUHLJLFVRKYNRL-UHFFFAOYSA-N

>  <alias>  (1) 
5hmy-a

>  <smiles>  (1) 
O=C(O)Cc1cc(CC(=O)O)cc(-c2ccc(C#CCO)s2)c1

>  <path>  (1) 
/opt/xchem-fragalysis-2/maxwin/BulkDock/TARGETS/Flavi_NS5_RdRp/aligned_files/5hmy-a/5hmy-a.pdb

>  <distance_score>  (1) 
None

>  <energy_score>  (1) 
None

>  <compound>  (1) 
GUHLJLFVRKYNRL-UHFFFAOYSA-N

>  <compound_id>  (1) 
153

>  <target>  (1) 
Flavi_NS5_RdRp

$$$$
5i3q-a
     RDKit          3D

 34 37  0  0  0  0  0  0  0  0999 V2000
  -15.4510  -43.8150  -21.4860 C   0  0  0  0  0  0  0  0  0  0  0  0
  -14.5060  -43.1070  -20.7500 C   0  0  0  0  0  0  0  0  0  0  0  0
  -14.5350  -43.0860  -19.3580 C   0  0  0  0  0  0  0  0  0  0  0  0
  -22.2920  -46.1700  -26.7340 O   0  0  0  0  0  0  0  0  0  0  0  0
  -16.6900  -43.3130  -16.6750 O   0  0  0  0  0  0  0  0  0  0  0  0
  -16.0670  -44.7310  -14.4590 O   0  0  0  0  0  0  0  0  0  0  0  0
  -19.0000  -46.3750  -23.2190 C   0  0  0  0  0  0  0  0  0  0  0  0
  -19.7790  -46.6010  -24.3820 C   0  0  0  0  0  0  0  0  0  0  0  0
  -20.3740  -46.6640  -25.4130 C   0  0  0  0  0  0  0  0  0  0  0  0
  -21.0600  -46.8430  -26.6950 C   0  0  0  0  0  0  0  0  0  0  0  0
  -15.6940  -43.7870  -17.2240 C   0  0  0  0  0  0  0  0  0  0  0  0
  -14.1580  -42.9560  -14.3340 C   0  0  0  0  0  0  0  0  0  0  0  0
  -15.0370  -42.1960  -13.6110 C   0  0  0  0  0  0  0  0  0  0  0  0
  -14.6800  -40.9230  -13.1920 C   0  0  0  0  0  0  0  0  0  0  0  0
  -13.4920  -40.3730  -13.5760 C   0  0  0  0  0  0  0  0  0  0  0  0
  -12.5550  -41.1220  -14.3370 C   0  0  0  0  0  0  0  0  0  0  0  0
  -11.3020  -40.6230  -14.7710 C   0  0  0  0  0  0  0  0  0  0  0  0
  -10.4700  -41.4120  -15.5120 C   0  0  0  0  0  0  0  0  0  0  0  0
  -10.9050  -42.6810  -15.8820 C   0  0  0  0  0  0  0  0  0  0  0  0
  -12.9010  -42.4330  -14.7560 C   0  0  0  0  0  0  0  0  0  0  0  0
  -13.7240  -45.5310  -14.5520 O   0  0  0  0  0  0  0  0  0  0  0  0
  -14.7120  -44.5500  -14.8810 S   0  0  0  0  0  0  0  0  0  0  0  0
  -12.0620  -43.2120  -15.5060 N   0  0  0  0  0  0  0  0  0  0  0  0
  -14.6780  -44.3800  -16.4980 N   0  0  0  0  0  0  0  0  0  0  0  0
  -15.5470  -43.8150  -18.7070 C   0  0  0  0  0  0  0  0  0  0  0  0
  -13.4940  -42.2820  -18.6180 C   0  0  0  0  0  0  0  0  0  0  0  0
  -16.4700  -44.5490  -19.4530 C   0  0  0  0  0  0  0  0  0  0  0  0
  -16.4420  -44.5680  -20.8410 C   0  0  0  0  0  0  0  0  0  0  0  0
  -15.4450  -43.8890  -22.8530 O   0  0  0  0  0  0  0  0  0  0  0  0
  -14.5160  -43.0670  -23.5740 C   0  0  0  0  0  0  0  0  0  0  0  0
  -17.4240  -45.4050  -21.5610 C   0  0  0  0  0  0  0  0  0  0  0  0
  -18.0460  -44.9420  -23.1100 S   0  0  0  0  0  0  0  0  0  0  0  0
  -18.8280  -47.1670  -22.1260 C   0  0  0  0  0  0  0  0  0  0  0  0
  -17.9540  -46.6080  -21.1720 C   0  0  0  0  0  0  0  0  0  0  0  0
  4 10  1  0
 10  9  1  0
  9  8  3  0
  8  7  1  0
  7 33  2  0
  7 32  1  0
 33 34  1  0
 34 31  2  0
 32 31  1  0
 31 28  1  0
 28 27  1  0
 28  1  2  0
 29  1  1  0
 29 30  1  0
 27 25  2  0
  1  2  1  0
 25 11  1  0
 25  3  1  0
  2  3  2  0
  5 11  2  0
 11 24  1  0
  3 26  1  0
  6 22  2  0
 24 22  1  0
 22 21  2  0
 22 12  1  0
 12 13  2  0
 12 20  1  0
 13 14  1  0
 23 20  2  0
 23 19  1  0
 20 16  1  0
 14 15  2  0
 19 18  2  0
 16 15  1  0
 16 17  2  0
 18 17  1  0
M  END
>  <id>  (2) 
221

>  <inchikey>  (2) 
IGHQXATTWZGDIH-UHFFFAOYSA-N

>  <alias>  (2) 
5i3q-a

>  <smiles>  (2) 
COc1cc(C)c(C(=O)NS(=O)(=O)c2cccc3cccnc23)cc1-c1ccc(C#CCO)s1

>  <path>  (2) 
/opt/xchem-fragalysis-2/maxwin/BulkDock/TARGETS/Flavi_NS5_RdRp/aligned_files/5i3q-a/5i3q-a.pdb

>  <distance_score>  (2) 
None

>  <energy_score>  (2) 
None

>  <compound>  (2) 
IGHQXATTWZGDIH-UHFFFAOYSA-N

>  <compound_id>  (2) 
156

>  <target>  (2) 
Flavi_NS5_RdRp

$$$$
